@<TRIPOS>MOLECULE
rofecoxib
 36 38 0 0 0
SMALL
USER_CHARGES

@<TRIPOS>ATOM
      1 C           0.7521    1.5559   -0.9802 C.ar    1  UNL1111    -0.1762
      2 C           0.4299    0.2369    1.0263 C.ar    1  UNL1111    -0.1638
      3 C          -3.5943   -1.5742    0.6642 C.ar    1  UNL1111    -0.1182
      4 C          -1.6325   -1.5840   -0.7538 C.ar    1  UNL1111    -0.1418
      5 C           2.0940    1.1825   -1.0039 C.ar    1  UNL1111    -0.0747
      6 C           1.7731   -0.1292    0.9999 C.ar    1  UNL1111    -0.0732
      7 C          -3.6049   -2.9662    0.6499 C.ar    1  UNL1111    -0.1506
      8 C          -1.6479   -2.9752   -0.7645 C.ar    1  UNL1111    -0.1514
      9 C          -2.6301   -3.6677   -0.0577 C.ar    1  UNL1111    -0.1251
     10 C           5.1589    1.1178    0.8448 C.3     1  UNL1111    -0.7562
     11 C          -0.0840    1.0751    0.0312 C.ar    1  UNL1111     0.0166
     12 C          -2.5978   -0.8758   -0.0270 C.ar    1  UNL1111    -0.0211
     13 C           2.6023    0.3478   -0.0121 C.ar    1  UNL1111    -0.3856
     14 O          -4.9580    1.1134    0.0737 O.2     1  UNL1111    -0.4048
     15 O           4.7292   -0.0634   -1.4467 O.2     1  UNL1111    -0.9090
     16 O           4.4171   -1.3829    0.6816 O.2     1  UNL1111    -0.9056
     17 C          -1.9912    2.8303    0.0481 C.3     1  UNL1111    -0.0557
     18 C          -1.4969    1.4048    0.0288 C.2     1  UNL1111    -0.0423
     19 C          -2.5579    0.5696    0.0149 C.2     1  UNL1111    -0.1402
     20 C          -3.7999    1.4006    0.0455 C.2     1  UNL1111     0.5791
     21 O          -3.4233    2.7379    0.0525 O.3     1  UNL1111    -0.3752
     22 S           4.3003   -0.1504   -0.0672 S.O2    1  UNL1111     2.2320
     23 H          -1.7124    3.3836    0.9622 H       1  UNL1111     0.1629
     24 H          -1.7185    3.4096   -0.8511 H       1  UNL1111     0.1623
     25 H           0.3524    2.1998   -1.7613 H       1  UNL1111     0.1594
     26 H          -0.2268   -0.1455    1.8081 H       1  UNL1111     0.1672
     27 H          -4.3670   -1.0272    1.2074 H       1  UNL1111     0.1697
     28 H          -0.8695   -1.0457   -1.3145 H       1  UNL1111     0.1559
     29 H           2.7309    1.5356   -1.8235 H       1  UNL1111     0.1729
     30 H           2.1554   -0.8127    1.7680 H       1  UNL1111     0.1768
     31 H          -4.3804   -3.5067    1.1903 H       1  UNL1111     0.1540
     32 H          -0.8913   -3.5211   -1.3256 H       1  UNL1111     0.1549
     33 H          -2.6384   -4.7561   -0.0640 H       1  UNL1111     0.1499
     34 H           4.7806    1.2279    1.8666 H       1  UNL1111     0.1811
     35 H           6.2285    0.8770    0.9344 H       1  UNL1111     0.1943
     36 H           5.1017    2.0951    0.3534 H       1  UNL1111     0.1816
@<TRIPOS>BOND
     1    18    19    2
     2    18    11    1
     3    18    17    1
     4    19    12    1
     5    19    20    1
     6    11     1   ar
     7    11     2   ar
     8    17    21    1
     9    12     3   ar
    10    12     4   ar
    11    20    14    2
    12     1     5   ar
    13     2     6   ar
    14     3     7   ar
    15     4     8   ar
    16     5    13   ar
    17     7     9   ar
    18    13    22    1
    19    22    10    1
    20    22    15    2
    21    22    16    2
    22    20    21    1
    23     6    13   ar
    24     8     9   ar
    25    17    23    1
    26    17    24    1
    27     1    25    1
    28     2    26    1
    29     3    27    1
    30     4    28    1
    31     5    29    1
    32     6    30    1
    33     7    31    1
    34     8    32    1
    35     9    33    1
    36    10    34    1
    37    10    35    1
    38    10    36    1
