@<TRIPOS>MOLECULE
phenolphthalein
 38 41 0 0 0
SMALL
USER_CHARGES

@<TRIPOS>ATOM
      1 C          -0.2850    1.7140    1.8468 C.ar    1  UNL11111   -0.1667
      2 C           1.6355   -1.5441   -1.0180 C.ar    1  UNL11111   -0.0338
      3 C           2.1413   -0.3494    1.0299 C.ar    1  UNL11111   -0.0683
      4 C          -2.2415   -0.4419   -1.0844 C.ar    1  UNL11111   -0.0521
      5 C          -1.3025   -1.5197    0.8740 C.ar    1  UNL11111   -0.0638
      6 C          -0.0578    3.8996    0.0532 C.ar    1  UNL11111   -0.0560
      7 C          -0.3730    3.0368    2.3023 C.ar    1  UNL11111   -0.0979
      8 C           2.7771   -2.3163   -0.8703 C.ar    1  UNL11111   -0.2535
      9 C           3.2920   -1.1159    1.2030 C.ar    1  UNL11111   -0.3180
     10 C          -3.4055   -1.1861   -0.9511 C.ar    1  UNL11111   -0.2486
     11 C          -2.4609   -2.2745    1.0306 C.ar    1  UNL11111   -0.3137
     12 C          -0.2547    4.1118    1.4240 C.ar    1  UNL11111   -0.1741
     13 H           5.2370   -2.6816    1.1284 H       1  UNL11111    0.3277
     14 H          -4.6810   -3.4135    0.9423 H       1  UNL11111    0.3276
     15 C           1.3099   -0.5664   -0.0657 C.ar    1  UNL11111   -0.1372
     16 C          -1.1934   -0.6034   -0.1727 C.ar    1  UNL11111   -0.1345
     17 C           3.5889   -2.0894    0.2485 C.ar    1  UNL11111    0.3084
     18 C          -3.4962   -2.0921    0.1116 C.ar    1  UNL11111    0.3026
     19 O           0.2994    2.5929   -2.8190 O.2     1  UNL11111   -0.4162
     20 O           4.6834   -2.8867    0.3375 O.3     1  UNL11111   -0.4734
     21 O          -4.6635   -2.7813    0.1846 O.3     1  UNL11111   -0.4740
     22 C           0.1821    2.0586   -1.7557 C.2     1  UNL11111    0.5898
     23 C          -0.0712    1.5093    0.4986 C.ar    1  UNL11111   -0.0183
     24 C           0.0252    2.5943   -0.3884 C.ar    1  UNL11111   -0.1820
     25 O           0.1511    0.6762   -1.6822 O.3     1  UNL11111   -0.4058
     26 C           0.0543    0.2258   -0.2980 C.3     1  UNL11111    0.2573
     27 H          -0.3955    0.8807    2.5366 H       1  UNL11111    0.1638
     28 H           0.9818   -1.6893   -1.8834 H       1  UNL11111    0.1737
     29 H           1.9068    0.4248    1.7612 H       1  UNL11111    0.1546
     30 H          -2.1432    0.2680   -1.9101 H       1  UNL11111    0.1726
     31 H          -0.4739   -1.6530    1.5715 H       1  UNL11111    0.1566
     32 H           0.0232    4.7357   -0.6417 H       1  UNL11111    0.1689
     33 H          -0.5402    3.2234    3.3633 H       1  UNL11111    0.1514
     34 H           3.0511   -3.0792   -1.5946 H       1  UNL11111    0.1792
     35 H           3.9400   -0.9510    2.0553 H       1  UNL11111    0.1595
     36 H          -4.2343   -1.0807   -1.6467 H       1  UNL11111    0.1786
     37 H          -2.5510   -2.9863    1.8424 H       1  UNL11111    0.1597
     38 H          -0.3215    5.1301    1.8036 H       1  UNL11111    0.1562
@<TRIPOS>BOND
     1    26    23    1
     2    26    15    1
     3    26    16    1
     4    26    25    1
     5    23    24   ar
     6    23     1   ar
     7    15     2   ar
     8    15     3   ar
     9    16     4   ar
    10    16     5   ar
    11    25    22    1
    12    24     6   ar
    13     1     7   ar
    14     2     8   ar
    15     3     9   ar
    16     4    10   ar
    17     5    11   ar
    18    22    19    2
    19     6    12   ar
    20     8    17   ar
    21    10    18   ar
    22    17    20    1
    23    18    21    1
    24    24    22    1
    25     7    12   ar
    26     9    17   ar
    27    11    18   ar
    28     1    27    1
    29     2    28    1
    30     3    29    1
    31     4    30    1
    32     5    31    1
    33     6    32    1
    34     7    33    1
    35     8    34    1
    36     9    35    1
    37    10    36    1
    38    11    37    1
    39    12    38    1
    40    20    13    1
    41    21    14    1
