@<TRIPOS>MOLECULE
furan
 9 9 0 0 0
SMALL
USER_CHARGES

@<TRIPOS>ATOM
      1 O          -0.0005   -1.1475    0.0008 O.2     1  UNL111     -0.1776
      2 C          -1.1071   -0.3216   -0.0019 C.ar    1  UNL111     -0.0209
      3 C          -0.7236    0.9908   -0.0039 C.ar    1  UNL111     -0.2294
      4 C           0.7199    0.9918   -0.0023 C.ar    1  UNL111     -0.2295
      5 C           1.1049   -0.3203    0.0003 C.ar    1  UNL111     -0.0208
      6 H          -2.0296   -0.8517   -0.0021 H       1  UNL111      0.1705
      7 H          -1.3386    1.8649   -0.0059 H       1  UNL111      0.1685
      8 H           1.3329    1.8673   -0.0033 H       1  UNL111      0.1686
      9 H           2.0286   -0.8487    0.0022 H       1  UNL111      0.1705
@<TRIPOS>BOND
     1     1     2   ar
     2     2     3   ar
     3     3     4   ar
     4     4     5   ar
     5     1     5   ar
     6     2     6    1
     7     3     7    1
     8     4     8    1
     9     5     9    1
