@<TRIPOS>MOLECULE
C4H9As
   14    14     1     0     0
SMALL
NO_CHARGES


@<TRIPOS>ATOM
      1 As1        -0.8477   -0.0024   -0.0374 Du        1 <1>         0.0000
      2 H1         -1.7625    0.1043    1.2587 H         1 <1>         0.0000
      3 C1          0.4895    1.5214   -0.0481 C.3       1 <1>         0.0000
      4 C2          1.7934    0.7138    0.2336 C.3       1 <1>         0.0000
      5 C3          1.7627   -0.7266   -0.2865 C.3       1 <1>         0.0000
      6 C4          0.4943   -1.5067    0.2035 C.3       1 <1>         0.0000
      7 H2          0.5269    2.0117   -1.0208 H         1 <1>         0.0000
      8 H3          0.2843    2.2370    0.7482 H         1 <1>         0.0000
      9 H4          2.6307    1.2331   -0.2326 H         1 <1>         0.0000
     10 H5          1.9612    0.6904    1.3103 H         1 <1>         0.0000
     11 H6          1.7684   -0.7095   -1.3763 H         1 <1>         0.0000
     12 H7          2.6547   -1.2474    0.0614 H         1 <1>         0.0000
     13 H8          0.5824   -1.8068    1.2477 H         1 <1>         0.0000
     14 H9          0.2687   -2.3569   -0.4401 H         1 <1>         0.0000
@<TRIPOS>BOND
     1    1    2 1
     2    1    3 1
     3    3    4 1
     4    4    5 1
     5    5    6 1
     6    1    6 1
     7    3    7 1
     8    3    8 1
     9    4    9 1
    10    4   10 1
    11    5   11 1
    12    5   12 1
    13    6   13 1
    14    6   14 1
