@<TRIPOS>MOLECULE
silolane
 15 15 0 0 0
SMALL
USER_CHARGES

@<TRIPOS>ATOM
      1 SI          1.2508   -0.0089   -0.0080 Si      1  UNL1111     0.0961
      2 H           2.1509   -0.0889    1.1280 H       1  UNL1111     0.0437
      3 H           2.0167    0.0702   -1.2392 H       1  UNL1111     0.0438
      4 C           0.0187   -1.4170   -0.0511 C.3     1  UNL1111    -0.4294
      5 C          -1.3525   -0.7395    0.1808 C.3     1  UNL1111    -0.2359
      6 C          -1.3238    0.7593   -0.2092 C.3     1  UNL1111    -0.2364
      7 C           0.0345    1.4017    0.1527 C.3     1  UNL1111    -0.4280
      8 H           0.0311   -1.9481   -1.0268 H       1  UNL1111     0.1557
      9 H           0.2060   -2.1992    0.7129 H       1  UNL1111     0.1539
     10 H          -2.1384   -1.2613   -0.3986 H       1  UNL1111     0.1291
     11 H          -1.6595   -0.8422    1.2417 H       1  UNL1111     0.1334
     12 H          -1.5382    0.8717   -1.2919 H       1  UNL1111     0.1345
     13 H          -2.1471    1.2955    0.3014 H       1  UNL1111     0.1290
     14 H           0.0089    1.8016    1.1903 H       1  UNL1111     0.1568
     15 H           0.2528    2.2722   -0.4983 H       1  UNL1111     0.1537
@<TRIPOS>BOND
     1     1     2    1
     2     1     3    1
     3     1     4    1
     4     4     5    1
     5     5     6    1
     6     6     7    1
     7     1     7    1
     8     4     8    1
     9     4     9    1
    10     5    10    1
    11     5    11    1
    12     6    12    1
    13     6    13    1
    14     7    14    1
    15     7    15    1
