@<TRIPOS>MOLECULE
urea
 8 7 0 0 0
SMALL
USER_CHARGES

@<TRIPOS>ATOM
      1 N           1.1769   -0.6446   -0.0384 N.am    1  UNL1111    -0.7111
      2 C          -0.0060    0.0873    0.0066 C.2     1  UNL1111     0.7237
      3 O          -0.0111    1.3024   -0.0375 O.2     1  UNL1111    -0.5443
      4 N          -1.1874   -0.6527    0.1190 N.am    1  UNL1111    -0.7036
      5 H           2.0421   -0.1405   -0.0050 H       1  UNL1111     0.3212
      6 H           1.2160   -1.6186    0.1531 H       1  UNL1111     0.3021
      7 H          -1.2265   -1.6149   -0.1349 H       1  UNL1111     0.2961
      8 H          -2.0489   -0.1451    0.0207 H       1  UNL1111     0.3158
@<TRIPOS>BOND
     1     1     2   am
     2     2     3    2
     3     2     4   am
     4     1     5    1
     5     1     6    1
     6     4     7    1
     7     4     8    1
