@<TRIPOS>MOLECULE
thietane
 10 10 0 0 0
SMALL
USER_CHARGES

@<TRIPOS>ATOM
      1 S           0.9891    0.0106    0.5890 S.3     1  UNL111     -0.0233
      2 C          -0.3761   -1.1613    0.1407 C.3     1  UNL111     -0.3156
      3 C          -1.3216    0.0048   -0.1879 C.3     1  UNL111     -0.2713
      4 C          -0.3752    1.1757    0.1206 C.3     1  UNL111     -0.3156
      5 H          -0.1335   -1.8094   -0.7077 H       1  UNL111      0.1565
      6 H          -0.6991   -1.7941    0.9737 H       1  UNL111      0.1565
      7 H          -1.6681   -0.0038   -1.2338 H       1  UNL111      0.1498
      8 H          -2.2307    0.0104    0.4345 H       1  UNL111      0.1498
      9 H          -0.6976    1.8230    0.9427 H       1  UNL111      0.1565
     10 H          -0.1320    1.8090   -0.7387 H       1  UNL111      0.1565
@<TRIPOS>BOND
     1     1     2    1
     2     2     3    1
     3     3     4    1
     4     1     4    1
     5     2     5    1
     6     2     6    1
     7     3     7    1
     8     3     8    1
     9     4     9    1
    10     4    10    1
