@<TRIPOS>MOLECULE
oxetane
 10 10 0 0 0
SMALL
USER_CHARGES

@<TRIPOS>ATOM
      1 O          -0.9904    0.0076   -0.4380 O.3     1  UNL1111    -0.3939
      2 C          -0.0033   -1.0371   -0.2121 C.3     1  UNL1111    -0.0368
      3 C           1.1039    0.0090    0.0628 C.3     1  UNL1111    -0.3583
      4 C          -0.0093    1.0536   -0.1927 C.3     1  UNL1111    -0.0367
      5 H          -0.3134   -1.6508    0.6369 H       1  UNL1111     0.1311
      6 H           0.1076   -1.6324   -1.1215 H       1  UNL1111     0.1311
      7 H           1.5201    0.0009    1.0711 H       1  UNL1111     0.1507
      8 H           1.9296    0.0179   -0.6503 H       1  UNL1111     0.1506
      9 H           0.0979    1.6667   -1.0907 H       1  UNL1111     0.1311
     10 H          -0.3230    1.6491    0.6677 H       1  UNL1111     0.1311
@<TRIPOS>BOND
     1     1     2    1
     2     2     3    1
     3     3     4    1
     4     1     4    1
     5     2     5    1
     6     2     6    1
     7     3     7    1
     8     3     8    1
     9     4     9    1
    10     4    10    1
