@<TRIPOS>MOLECULE
aspirin
 21 21 0 0 0
SMALL
USER_CHARGES

@<TRIPOS>ATOM
      1 C           2.2555   -0.4007    0.1360 C.ar    1  UNL111111   -0.0193
      2 C           0.9574    2.0366   -0.3703 C.ar    1  UNL111111   -0.2532
      3 C           2.9804    0.7839    0.0757 C.ar    1  UNL111111   -0.2258
      4 C           2.3330    1.9969   -0.1792 C.ar    1  UNL111111   -0.0482
      5 C          -3.3207    0.2990   -0.3179 C.3     1  UNL111111   -0.4999
      6 C           0.8690   -0.3885   -0.0573 C.ar    1  UNL111111   -0.2470
      7 C           0.2393    0.8393   -0.3031 C.ar    1  UNL111111    0.3397
      8 O          -1.1125   -1.7543   -0.1416 O.2     1  UNL111111   -0.5360
      9 O          -1.7080    0.4237    1.5061 O.2     1  UNL111111   -0.4689
     10 O           0.8634   -2.7156    0.1801 O.3     1  UNL111111   -0.5519
     11 C           0.0821   -1.6200   -0.0161 C.2     1  UNL111111    0.6795
     12 C          -2.0148    0.5007    0.3531 C.2     1  UNL111111    0.6713
     13 O          -1.0885    0.9022   -0.6057 O.3     1  UNL111111   -0.4460
     14 H           0.3418   -3.5569    0.2239 H       1  UNL111111    0.3587
     15 H           2.7646   -1.3489    0.3346 H       1  UNL111111    0.1751
     16 H           0.4346    2.9700   -0.5656 H       1  UNL111111    0.1784
     17 H           4.0576    0.7686    0.2289 H       1  UNL111111    0.1617
     18 H           2.9127    2.9202   -0.2235 H       1  UNL111111    0.1535
     19 H          -3.4520   -0.7801   -0.5396 H       1  UNL111111    0.2072
     20 H          -4.1541    0.6128    0.3287 H       1  UNL111111    0.1839
     21 H          -3.3983    0.8331   -1.2781 H       1  UNL111111    0.1870
@<TRIPOS>BOND
     1     6     7   ar
     2     6     1   ar
     3     6    11    1
     4     7     2   ar
     5     7    13    1
     6     1     3   ar
     7    11    10    1
     8    11     8    2
     9     2     4   ar
    10    13    12    1
    11    12     5    1
    12    12     9    2
    13     3     4   ar
    14     1    15    1
    15     2    16    1
    16     3    17    1
    17    10    14    1
    18     4    18    1
    19     5    19    1
    20     5    20    1
    21     5    21    1
