@<TRIPOS>MOLECULE
phospholane
 14 14 0 0 0
SMALL
USER_CHARGES

@<TRIPOS>ATOM
      1 P          -1.3344   -0.0003   -0.1365 P.3     1  UNL1111    -0.5055
      2 C          -0.0239   -1.3791    0.1143 C.3     1  UNL1111    -0.2693
      3 C           1.3632   -0.7711   -0.2195 C.3     1  UNL1111    -0.2394
      4 C           1.3872    0.7388    0.1102 C.3     1  UNL1111    -0.2359
      5 C          -0.0096    1.3970   -0.0767 C.3     1  UNL1111    -0.2718
      6 H          -1.6332   -0.0939   -1.5975 H       1  UNL1111     0.1934
      7 H          -0.0388   -1.7189    1.1847 H       1  UNL1111     0.1924
      8 H          -0.2276   -2.2932   -0.4905 H       1  UNL1111     0.1804
      9 H           2.1480   -1.3009    0.3559 H       1  UNL1111     0.1475
     10 H           1.6228   -0.9376   -1.2850 H       1  UNL1111     0.1461
     11 H           1.7338    0.8885    1.1532 H       1  UNL1111     0.1494
     12 H           2.1320    1.2568   -0.5239 H       1  UNL1111     0.1460
     13 H          -0.0280    2.0297   -0.9948 H       1  UNL1111     0.1767
     14 H          -0.2139    2.0985    0.7723 H       1  UNL1111     0.1898
@<TRIPOS>BOND
     1     1     2    1
     2     2     3    1
     3     3     4    1
     4     4     5    1
     5     1     5    1
     6     1     6    1
     7     2     7    1
     8     2     8    1
     9     3     9    1
    10     3    10    1
    11     4    11    1
    12     4    12    1
    13     5    13    1
    14     5    14    1
