@<TRIPOS>MOLECULE
ethylene oxide
 7 7 0 0 0
SMALL
USER_CHARGES

@<TRIPOS>ATOM
      1 O           0.0071    0.7716    0.0191 O.3     1  UNL1111    -0.3180
      2 C          -0.7407   -0.4475    0.0048 C.3     1  UNL1111    -0.1403
      3 C           0.7446   -0.4536    0.0052 C.3     1  UNL1111    -0.1403
      4 H          -1.3018   -0.6538    0.9127 H       1  UNL1111     0.1496
      5 H          -1.3037   -0.6318   -0.9064 H       1  UNL1111     0.1497
      6 H           1.3064   -0.6426   -0.9060 H       1  UNL1111     0.1497
      7 H           1.3039   -0.6640    0.9132 H       1  UNL1111     0.1496
@<TRIPOS>BOND
     1     1     2    1
     2     2     3    1
     3     1     3    1
     4     2     4    1
     5     2     5    1
     6     3     6    1
     7     3     7    1
