@<TRIPOS>MOLECULE
C44H54CaF2N6O12S2
  121   122     1     0     0
SMALL
NO_CHARGES


@<TRIPOS>ATOM
      1 C1        -16.6315   -2.5259   -0.9792 C.3       1 <1>         0.0000
      2 C2        -14.4121   -3.6170   -0.6242 C.3       1 <1>         0.0000
      3 C3         14.6498    3.8005    1.1171 C.3       1 <1>         0.0000
      4 C4         16.1497    2.1567   -0.0189 C.3       1 <1>         0.0000
      5 C5        -20.6464   -1.2801    1.7620 C.ar      1 <1>         0.0000
      6 C6        -20.1612   -2.2054   -0.4137 C.ar      1 <1>         0.0000
      7 C7        -20.8825   -2.5506    2.2439 C.ar      1 <1>         0.0000
      8 C8        -20.3993   -3.4719    0.0775 C.ar      1 <1>         0.0000
      9 C9        -15.2828   -2.4110   -0.2660 C.3       1 <1>         0.0000
     10 C10       -13.1140   -3.5669    0.1842 C.3       1 <1>         0.0000
     11 C11       -18.2361    2.6903   -3.7064 C.3       1 <1>         0.0000
     12 C12       -16.7120    3.1453   -1.7796 C.3       1 <1>         0.0000
     13 C13       -21.1566    4.8987   -0.2706 C.3       1 <1>         0.0000
     14 C14       -21.8996    3.4750    2.9213 C.3       1 <1>         0.0000
     15 H1        -16.0248   -1.6147   -2.6830 H         1 <1>         0.0000
     16 H2        -13.6257   -2.7941   -2.2992 H         1 <1>         0.0000
     17 C15       -20.0294    0.2628   -0.0953 C.ar      1 <1>         0.0000
     18 C16       -18.9669    0.5013   -0.9915 C.ar      1 <1>         0.0000
     19 C17       -20.2835   -1.0992    0.4273 C.ar      1 <1>         0.0000
     20 C18       -18.7733    1.8061   -1.4528 C.ar      1 <1>         0.0000
     21 C19       -20.5680    2.5043   -0.1848 C.ar      1 <1>         0.0000
     22 C20       -20.7592   -3.6466    1.4045 C.ar      1 <1>         0.0000
     23 O1        -22.9545    1.8765    1.0637 O.2       1 <1>         0.0000
     24 O2        -23.5754    4.2705    1.0036 O.2       1 <1>         0.0000
     25 O3        -11.2358   -4.9750    0.4750 O.2       1 <1>         0.0000
     26 O4        -16.4321   -2.4420   -2.3917 O.3       1 <1>         0.0000
     27 O5        -14.1057   -3.5857   -2.0196 O.3       1 <1>         0.0000
     28 C21       -12.3118   -4.8158   -0.0759 C.2       1 <1>         0.0000
     29 H3         14.0098    3.8285    3.1739 H         1 <1>         0.0000
     30 H4         15.2960    4.9968    2.7880 H         1 <1>         0.0000
     31 H5         14.9298    4.5208    0.3485 H         1 <1>         0.0000
     32 H6         16.6628    3.3235    1.7178 H         1 <1>         0.0000
     33 H7         15.4782    2.0308    2.0242 H         1 <1>         0.0000
     34 H8         16.3773    2.9344   -0.7478 H         1 <1>         0.0000
     35 H9         18.2627    1.6664    0.5808 H         1 <1>         0.0000
     36 H10        16.3842   -0.4082   -0.6276 H         1 <1>         0.0000
     37 H11        16.2689   -1.8408    0.9180 H         1 <1>         0.0000
     38 H12        21.8057    1.2393   -0.2193 H         1 <1>         0.0000
     39 H13        18.0836    0.6917   -2.2752 H         1 <1>         0.0000
     40 H14        17.3953   -1.8875    3.1266 H         1 <1>         0.0000
     41 H15        17.8842   -3.5751    2.8415 H         1 <1>         0.0000
     42 H16        16.1606   -3.1646    3.0119 H         1 <1>         0.0000
     43 H17        17.4085   -4.6589    0.6411 H         1 <1>         0.0000
     44 H18        16.5806   -3.7433   -0.6414 H         1 <1>         0.0000
     45 H19        15.6849   -4.2483    0.8115 H         1 <1>         0.0000
     46 H20        22.0967    3.4082   -1.3411 H         1 <1>         0.0000
     47 H21        18.3913    2.8606   -3.3927 H         1 <1>         0.0000
     48 H22        21.3377   -5.3521    0.3744 H         1 <1>         0.0000
     49 H23        20.7591   -4.5322    1.8445 H         1 <1>         0.0000
     50 H24        22.4977   -4.8447    1.6255 H         1 <1>         0.0000
     51 H25        24.0220   -2.5939    2.1538 H         1 <1>         0.0000
     52 H26        23.3099   -1.0729    1.5640 H         1 <1>         0.0000
     53 H27        24.9322   -1.5652    1.0217 H         1 <1>         0.0000
     54 C22       -17.6539    2.1188   -2.4121 C.3       1 <1>         0.0000
     55 C23       -18.0834   -0.5970   -1.4297 C.2       1 <1>         0.0000
     56 C24       -17.5335   -1.4046   -0.5318 C.2       1 <1>         0.0000
     57 F1        -20.9910   -4.8892    1.8813 F         1 <1>         0.0000
     58 O6        -12.7386   -5.6670   -0.8373 O.2       1 <1>        -1.0000
     59 N1        -20.7957    1.2844    0.2763 N.ar      1 <1>         0.0000
     60 N2        -19.5854    2.7621   -1.0367 N.ar      1 <1>         0.0000
     61 N3        -21.3883    3.5400    0.2257 N.3       1 <1>         0.0000
     62 S1        -22.6322    3.2438    1.2780 S.o2      1 <1>         0.0000
     63 C25        14.3751    4.5365    2.4300 C.3       1 <1>         0.0000
     64 C26        15.7914    2.8026    1.3211 C.3       1 <1>         0.0000
     65 C27        21.0564    1.5949   -0.9110 C.ar      1 <1>         0.0000
     66 C28        18.9622    1.2855   -2.0703 C.ar      1 <1>         0.0000
     67 C29        21.2204    2.8100   -1.5424 C.ar      1 <1>         0.0000
     68 C30        19.1352    2.5019   -2.6967 C.ar      1 <1>         0.0000
     69 C31        17.1241   -2.8217    2.6347 C.3       1 <1>         0.0000
     70 C32        16.6484   -3.9054    0.4344 C.3       1 <1>         0.0000
     71 C33        21.5685   -4.5880    1.1167 C.3       1 <1>         0.0000
     72 C34        23.9403   -1.9218    1.2995 C.3       1 <1>         0.0000
     73 H28        13.1654    2.4419    1.3456 H         1 <1>         0.0000
     74 H29        14.7868    0.6650    0.1177 H         1 <1>         0.0000
     75 C35        18.4725   -0.8802   -0.0315 C.ar      1 <1>         0.0000
     76 C36        19.7430   -0.4822   -0.4966 C.ar      1 <1>         0.0000
     77 C37        18.3611   -2.1201    0.6033 C.ar      1 <1>         0.0000
     78 C38        19.9238    0.8233   -1.1715 C.ar      1 <1>         0.0000
     79 C39        20.6181   -2.4683    0.2857 C.ar      1 <1>         0.0000
     80 C40        20.2622    3.2648   -2.4345 C.ar      1 <1>         0.0000
     81 O7         12.9726    6.3100    3.1247 O.2       1 <1>         0.0000
     82 O8         22.9084   -1.9114   -1.1609 O.2       1 <1>         0.0000
     83 O9         23.8981   -4.0254   -0.3412 O.2       1 <1>         0.0000
     84 C41        13.3365    5.6039    2.1998 C.2       1 <1>         0.0000
     85 O10        12.8601    5.7613    1.0886 O.2       1 <1>        -1.0000
     86 O11        13.4728    3.1008    0.7081 O.3       1 <1>         0.0000
     87 O12        15.0450    1.3777   -0.4826 O.3       1 <1>         0.0000
     88 C42        17.3528    1.2666    0.1583 C.2       1 <1>         0.0000
     89 C43        17.2941   -0.0084   -0.2050 C.2       1 <1>         0.0000
     90 C44        17.0290   -2.5942    1.1247 C.3       1 <1>         0.0000
     91 N4         21.7179   -3.2910    0.4521 N.3       1 <1>         0.0000
     92 F2         20.4271    4.4560   -3.0503 F         1 <1>         0.0000
     93 N5         20.7761   -1.3006   -0.3176 N.ar      1 <1>         0.0000
     94 N6         19.4396   -2.8716    0.7397 N.ar      1 <1>         0.0000
     95 S2         23.2031   -2.8097   -0.1000 S.o2      1 <1>         0.0000
     96 Ca1         0.0457    0.0375    0.0939 CA        1 <1>         2.0000
     97 H30       -17.8845   -0.7432   -2.4811 H         1 <1>         0.0000
     98 H31       -20.7467   -0.4264    2.4158 H         1 <1>         0.0000
     99 H32       -19.8805   -2.0703   -1.4478 H         1 <1>         0.0000
    100 H33       -17.1004    1.2064   -2.6344 H         1 <1>         0.0000
    101 H34       -17.7324   -1.2584    0.5196 H         1 <1>         0.0000
    102 H35       -21.1635   -2.6917    3.2771 H         1 <1>         0.0000
    103 H36       -20.3049   -4.3290   -0.5727 H         1 <1>         0.0000
    104 H37       -18.9071    1.9590   -4.1570 H         1 <1>         0.0000
    105 H38       -18.7896    3.6026   -3.4841 H         1 <1>         0.0000
    106 H39       -17.4265    2.9164   -4.4003 H         1 <1>         0.0000
    107 H40       -16.2972    2.7382   -0.8575 H         1 <1>         0.0000
    108 H41       -15.9024    3.3715   -2.4735 H         1 <1>         0.0000
    109 H42       -17.2655    4.0577   -1.5573 H         1 <1>         0.0000
    110 H43       -17.0921   -3.4828   -0.7335 H         1 <1>         0.0000
    111 H44       -21.7266    5.0530   -1.1868 H         1 <1>         0.0000
    112 H45       -21.4760    5.6198    0.4818 H         1 <1>         0.0000
    113 H46       -20.0947    5.0343   -0.4762 H         1 <1>         0.0000
    114 H47       -14.7823   -1.4952   -0.5806 H         1 <1>         0.0000
    115 H48       -15.4428   -2.3857    0.8119 H         1 <1>         0.0000
    116 H49       -21.5242    4.4944    3.0116 H         1 <1>         0.0000
    117 H50       -22.6569    3.2978    3.6849 H         1 <1>         0.0000
    118 H51       -21.0775    2.7719    3.0548 H         1 <1>         0.0000
    119 H52       -14.9502   -4.5358   -0.3909 H         1 <1>         0.0000
    120 H53       -12.5338   -2.6937   -0.1139 H         1 <1>         0.0000
    121 H54       -13.3498   -3.5012    1.2464 H         1 <1>         0.0000
@<TRIPOS>BOND
     1   17   18 ar
     2   17   19 1
     3   17   59 ar
     4   18   20 ar
     5   18   55 1
     6   19    5 ar
     7   19    6 ar
     8   59   21 ar
     9   20   60 ar
    10   20   54 1
    11   55   56 2
    12    5    7 ar
    13    6    8 ar
    14   21   61 1
    15   54   11 1
    16   54   12 1
    17   56    1 1
    18    7   22 ar
    19   61   62 1
    20   61   13 1
    21    1    9 1
    22    1   26 1
    23   22   57 1
    24   62   14 1
    25   62   23 2
    26   62   24 2
    27    9    2 1
    28    2   10 1
    29    2   27 1
    30   10   28 1
    31   28   58 1
    32   28   25 2
    33   85   84 1
    34   84   63 1
    35   84   81 2
    36   63    3 1
    37    3   64 1
    38    3   86 1
    39   64    4 1
    40    4   88 1
    41    4   87 1
    42   88   89 2
    43   89   75 1
    44   75   76 ar
    45   75   77 ar
    46   76   78 1
    47   76   93 ar
    48   77   94 ar
    49   77   90 1
    50   78   65 ar
    51   78   66 ar
    52   93   79 ar
    53   90   69 1
    54   90   70 1
    55   65   67 ar
    56   66   68 ar
    57   79   91 1
    58   67   80 ar
    59   91   95 1
    60   91   71 1
    61   80   92 1
    62   95   72 1
    63   95   82 2
    64   95   83 2
    65   21   60 ar
    66    8   22 ar
    67   94   79 ar
    68   68   80 ar
    69   55   97 1
    70    5   98 1
    71    6   99 1
    72   54  100 1
    73   56  101 1
    74    7  102 1
    75    8  103 1
    76   11  104 1
    77   11  105 1
    78   11  106 1
    79   12  107 1
    80   12  108 1
    81   12  109 1
    82    1  110 1
    83   13  111 1
    84   13  112 1
    85   13  113 1
    86    9  114 1
    87    9  115 1
    88   26   15 1
    89   14  116 1
    90   14  117 1
    91   14  118 1
    92    2  119 1
    93   10  120 1
    94   10  121 1
    95   27   16 1
    96   63   29 1
    97   63   30 1
    98    3   31 1
    99   64   32 1
   100   64   33 1
   101   86   73 1
   102    4   34 1
   103   88   35 1
   104   87   74 1
   105   89   36 1
   106   90   37 1
   107   65   38 1
   108   66   39 1
   109   69   40 1
   110   69   41 1
   111   69   42 1
   112   70   43 1
   113   70   44 1
   114   70   45 1
   115   67   46 1
   116   68   47 1
   117   71   48 1
   118   71   49 1
   119   71   50 1
   120   72   51 1
   121   72   52 1
   122   72   53 1
