@<TRIPOS>MOLECULE
azete
 7 7 0 0 0
SMALL
USER_CHARGES

@<TRIPOS>ATOM
      1 N          -0.1246   -1.0040    0.0003 N.2     1  UNL1111    -0.3548
      2 C          -0.9930   -0.0250   -0.0005 C.2     1  UNL1111     0.0818
      3 C           0.1183    1.0635   -0.0005 C.2     1  UNL1111    -0.2872
      4 C           0.9975    0.0416    0.0004 C.2     1  UNL1111     0.0297
      5 H          -2.0556    0.0204   -0.0010 H       1  UNL1111     0.1772
      6 H           0.0963    2.1145   -0.0010 H       1  UNL1111     0.1765
      7 H           2.0314   -0.1802    0.0010 H       1  UNL1111     0.1768
@<TRIPOS>BOND
     1     1     2    2
     2     2     3    1
     3     3     4    2
     4     1     4    1
     5     2     5    1
     6     3     6    1
     7     4     7    1
