@<TRIPOS>MOLECULE
testosterone
 49 52 0 0 0
SMALL
USER_CHARGES

@<TRIPOS>ATOM
      1 C           0.4852    0.8097   -0.3267 C.3     1  UNL11111   -0.1234
      2 C          -0.3888   -0.4184    0.0605 C.3     1  UNL11111   -0.1235
      3 C           1.7705    0.7155    0.4936 C.3     1  UNL11111   -0.1520
      4 C          -1.7544   -0.3751   -0.6880 C.3     1  UNL11111    0.0371
      5 C           2.5730   -0.5596    0.1058 C.3     1  UNL11111    0.0534
      6 C           3.8668   -0.3296    0.9349 C.3     1  UNL11111    0.1309
      7 C          -1.5814   -0.4676   -2.2139 C.3     1  UNL11111   -0.4576
      8 C           2.9470   -0.6438   -1.3763 C.3     1  UNL11111   -0.4417
      9 H           5.7532   -0.9027    0.7758 H       1  UNL11111    0.3102
     10 O          -5.2589   -0.0172    1.5149 O.2     1  UNL11111   -0.4653
     11 C          -0.2514    2.1255   -0.0338 C.3     1  UNL11111   -0.2736
     12 C           0.3712   -1.7354   -0.1878 C.3     1  UNL11111   -0.2762
     13 C           2.8048    1.8470    0.3853 C.3     1  UNL11111   -0.2706
     14 C          -1.6061    2.1629   -0.7592 C.3     1  UNL11111   -0.3032
     15 C          -2.6734   -1.5506   -0.2719 C.3     1  UNL11111   -0.2803
     16 C           1.7389   -1.7749    0.5180 C.3     1  UNL11111   -0.2946
     17 C           4.1233    1.1995    0.8697 C.3     1  UNL11111   -0.3343
     18 C          -3.3301   -1.3437    1.0903 C.3     1  UNL11111   -0.3845
     19 O           4.9071   -1.0551    0.3161 O.3     1  UNL11111   -0.5576
     20 C          -4.1484   -0.0737    1.0444 C.2     1  UNL11111    0.4950
     21 C          -3.4798    1.0812    0.4314 C.2     1  UNL11111   -0.3761
     22 C          -2.3789    0.9568   -0.3228 C.2     1  UNL11111    0.1098
     23 H           0.7262    0.7677   -1.4133 H       1  UNL11111    0.1451
     24 H          -0.6097   -0.3504    1.1544 H       1  UNL11111    0.1411
     25 H           1.4780    0.6332    1.5723 H       1  UNL11111    0.1393
     26 H          -0.4059    2.2441    1.0556 H       1  UNL11111    0.1459
     27 H           0.3693    2.9841   -0.3488 H       1  UNL11111    0.1412
     28 H          -0.2354   -2.5912    0.1653 H       1  UNL11111    0.1373
     29 H           0.5126   -1.8904   -1.2738 H       1  UNL11111    0.1435
     30 H           2.8955    2.2093   -0.6510 H       1  UNL11111    0.1411
     31 H           2.5277    2.7172    0.9976 H       1  UNL11111    0.1349
     32 H          -2.1391    3.1050   -0.5236 H       1  UNL11111    0.1525
     33 H          -1.4625    2.1759   -1.8571 H       1  UNL11111    0.1560
     34 H          -3.4682   -1.6790   -1.0365 H       1  UNL11111    0.1509
     35 H          -2.1081   -2.5008   -0.2817 H       1  UNL11111    0.1471
     36 H          -1.2709   -1.4737   -2.5182 H       1  UNL11111    0.1503
     37 H          -2.5197   -0.2395   -2.7334 H       1  UNL11111    0.1515
     38 H          -0.8228    0.2286   -2.5879 H       1  UNL11111    0.1510
     39 H           2.2718   -2.7090    0.2587 H       1  UNL11111    0.1497
     40 H           1.6001   -1.8007    1.6138 H       1  UNL11111    0.1363
     41 H           3.7679   -0.6947    1.9754 H       1  UNL11111    0.1101
     42 H           3.5370    0.2237   -1.6916 H       1  UNL11111    0.1486
     43 H           3.5706   -1.5304   -1.5621 H       1  UNL11111    0.1626
     44 H           2.0706   -0.7100   -2.0259 H       1  UNL11111    0.1382
     45 H           4.4261    1.5962    1.8483 H       1  UNL11111    0.1365
     46 H           4.9471    1.4153    0.1697 H       1  UNL11111    0.1524
     47 H          -3.9289    2.0455    0.6616 H       1  UNL11111    0.1785
     48 H          -3.9686   -2.2088    1.3572 H       1  UNL11111    0.1704
     49 H          -2.5755   -1.2684    1.8974 H       1  UNL11111    0.1665
@<TRIPOS>BOND
     1     1     2    1
     2     1     3    1
     3     1    11    1
     4     2     4    1
     5     2    12    1
     6     3     5    1
     7     3    13    1
     8    11    14    1
     9     4    22    1
    10     4    15    1
    11     4     7    1
    12    12    16    1
    13     5     6    1
    14     5     8    1
    15    13    17    1
    16    22    21    2
    17    15    18    1
    18     6    19    1
    19    21    20    1
    20    20    10    2
    21     5    16    1
    22    14    22    1
    23     6    17    1
    24    18    20    1
    25     1    23    1
    26     2    24    1
    27     3    25    1
    28    11    26    1
    29    11    27    1
    30    12    28    1
    31    12    29    1
    32    13    30    1
    33    13    31    1
    34    14    32    1
    35    14    33    1
    36    15    34    1
    37    15    35    1
    38     7    36    1
    39     7    37    1
    40     7    38    1
    41    16    39    1
    42    16    40    1
    43     6    41    1
    44     8    42    1
    45     8    43    1
    46     8    44    1
    47    17    45    1
    48    17    46    1
    49    21    47    1
    50    18    48    1
    51    18    49    1
    52    19     9    1
