@<TRIPOS>MOLECULE
aziridine
 8 8 0 0 0
SMALL
USER_CHARGES

@<TRIPOS>ATOM
      1 N           0.0120    0.8228    0.0720 N.3     1  UNL1111    -0.4496
      2 C          -0.7552   -0.4357   -0.0278 C.3     1  UNL1111    -0.2151
      3 C           0.7562   -0.4493   -0.0289 C.3     1  UNL1111    -0.2151
      4 H           0.0167    1.4086   -0.7540 H       1  UNL1111     0.2497
      5 H          -1.3069   -0.7158    0.8734 H       1  UNL1111     0.1709
      6 H          -1.3131   -0.6871   -0.9267 H       1  UNL1111     0.1441
      7 H           1.3078   -0.7119   -0.9286 H       1  UNL1111     0.1441
      8 H           1.3041   -0.7391    0.8716 H       1  UNL1111     0.1710
@<TRIPOS>BOND
     1     1     2    1
     2     2     3    1
     3     1     3    1
     4     1     4    1
     5     2     5    1
     6     2     6    1
     7     3     7    1
     8     3     8    1
