@<TRIPOS>MOLECULE
pentyl acetate
 23 22 0 0 0
SMALL
USER_CHARGES

@<TRIPOS>ATOM
      1 C           0.0100    0.0100    0.0100 C.3     1  UNL11111111   -0.5128
      2 C           1.5005    0.0100    0.0100 C.2     1  UNL11111111    0.6266
      3 H          -0.3913    1.0354    0.0100 H       1  UNL11111111    0.1848
      4 H          -0.3919   -0.4910    0.9044 H       1  UNL11111111    0.1848
      5 H          -0.3816   -0.5105   -0.8781 H       1  UNL11111111    0.1851
      6 O           1.9575    0.6505    1.1146 O.3     1  UNL11111111   -0.4407
      7 C           3.3833    0.7329    1.2565 C.3     1  UNL11111111   -0.0112
      8 C           3.5774    1.4925    2.5672 C.3     1  UNL11111111   -0.3028
      9 H           3.7936    1.2680    0.3827 H       1  UNL11111111    0.1355
     10 H           3.7938   -0.2912    1.2860 H       1  UNL11111111    0.1355
     11 C           5.0714    1.6567    2.8607 C.3     1  UNL11111111   -0.2667
     12 H           3.0720    0.9559    3.3936 H       1  UNL11111111    0.1528
     13 H           3.0785    2.4795    2.5095 H       1  UNL11111111    0.1527
     14 C           5.2818    2.4235    4.1734 C.3     1  UNL11111111   -0.2470
     15 H           5.5693    2.1914    2.0294 H       1  UNL11111111    0.1402
     16 H           5.5612    0.6662    2.9218 H       1  UNL11111111    0.1403
     17 C           6.7715    2.5853    4.4753 C.3     1  UNL11111111   -0.4402
     18 H           4.7826    1.8935    5.0066 H       1  UNL11111111    0.1349
     19 H           4.7983    3.4170    4.1139 H       1  UNL11111111    0.1348
     20 H           7.2687    1.6141    4.5764 H       1  UNL11111111    0.1432
     21 H           6.9298    3.1338    5.4105 H       1  UNL11111111    0.1405
     22 H           7.2848    3.1375    3.6801 H       1  UNL11111111    0.1432
     23 O           2.2398   -0.4665   -0.8119 O.2     1  UNL11111111   -0.5134
@<TRIPOS>BOND
     1    19    14    1
     2    22    17    1
     3    21    17    1
     4    17    14    1
     5    17    20    1
     6    13     8    1
     7    14    18    1
     8    14    11    1
     9    15    11    1
    10    11     8    1
    11    11    16    1
    12     8    12    1
    13     8     7    1
    14     9     7    1
    15     3     1    1
    16     7     6    1
    17     7    10    1
    18     6     2    1
    19     1     2    1
    20     1     4    1
    21     1     5    1
    22     2    23    2
