@<TRIPOS>MOLECULE
caffeine
 24 25 0 0 0
SMALL
USER_CHARGES

@<TRIPOS>ATOM
      1 N           1.3053   -1.0728    0.0138 N.am    1  UNL1111    -0.5228
      2 C           2.2446   -2.2064    0.0468 C.3     1  UNL1111    -0.2072
      3 C           1.8571    0.2223   -0.0054 C.2     1  UNL1111     0.7035
      4 O           3.0558    0.4090    0.0023 O.2     1  UNL1111    -0.5012
      5 N           0.9675    1.3152   -0.0396 N.am    1  UNL1111    -0.4121
      6 C           1.4845    2.6865   -0.0344 C.3     1  UNL1111    -0.2048
      7 C          -0.3865    1.0879   -0.0409 C.3     1  UNL1111     0.3096
      8 N          -1.4161    2.0059   -0.0672 N.3     1  UNL1111    -0.4334
      9 C          -2.5637    1.2704   -0.0643 C.3     1  UNL1111     0.1199
     10 N          -2.2981   -0.0810   -0.0351 N.3     1  UNL1111    -0.1548
     11 C          -3.2529   -1.1690   -0.0286 C.3     1  UNL1111    -0.2567
     12 C          -0.9147   -0.2312   -0.0201 C.3     1  UNL1111    -0.2858
     13 C          -0.0737   -1.3959    0.0088 C.2     1  UNL1111     0.6275
     14 O          -0.4197   -2.5565    0.0289 O.2     1  UNL1111    -0.4974
     15 H           3.2941   -1.8594    0.0743 H       1  UNL1111     0.1752
     16 H           2.0531   -2.8281    0.9411 H       1  UNL1111     0.1588
     17 H           2.1032   -2.8389   -0.8491 H       1  UNL1111     0.1581
     18 H           2.5873    2.6885   -0.1288 H       1  UNL1111     0.1777
     19 H           1.0518    3.2572   -0.8783 H       1  UNL1111     0.1626
     20 H           1.2051    3.1974    0.9060 H       1  UNL1111     0.1577
     21 H          -3.5541    1.6986   -0.0824 H       1  UNL1111     0.1966
     22 H          -3.8664   -1.1620   -0.9497 H       1  UNL1111     0.1634
     23 H          -2.7291   -2.1525    0.0171 H       1  UNL1111     0.2026
     24 H          -3.9208   -1.1047    0.8513 H       1  UNL1111     0.1631
@<TRIPOS>BOND
     1     1     2    1
     2     1     3   am
     3     3     4    2
     4     3     5   am
     5     5     6    1
     6     5     7    1
     7     7     8    1
     8     8     9    1
     9     9    10    1
    10    10    11    1
    11    10    12    1
    12     7    12    1
    13    12    13    1
    14     1    13   am
    15    13    14    2
    16     2    15    1
    17     2    16    1
    18     2    17    1
    19     6    18    1
    20     6    19    1
    21     6    20    1
    22     9    21    1
    23    11    22    1
    24    11    23    1
    25    11    24    1
