@<TRIPOS>MOLECULE
../pm7/Y/L/YLYBTZIQSIBWLI-UHFFFAOYSA-N.out
 32 31 0 0 0
SMALL
MULLIKEN_CHARGES

@<TRIPOS>ATOM
      1 C           0.0100    0.0100    0.0100 C.3     1  UNL1       -0.5127
      2 C           1.5005    0.0100    0.0100 C.2     1  UNL1        0.6267
      3 H          -0.3919    1.0352    0.0100 H       1  UNL1        0.1848
      4 H          -0.3916   -0.4918    0.9041 H       1  UNL1        0.1848
      5 H          -0.3813   -0.5099   -0.8786 H       1  UNL1        0.1851
      6 O           1.9578    0.6577    1.1101 O.3     1  UNL1       -0.4413
      7 C           3.3837    0.7407    1.2512 C.3     1  UNL1       -0.0118
      8 C           3.5780    1.5241    2.5480 C.3     1  UNL1       -0.3008
      9 H           3.7961    1.2587    0.3680 H       1  UNL1        0.1355
     10 H           3.7917   -0.2837    1.2999 H       1  UNL1        0.1351
     11 C           5.0723    1.6868    2.8416 C.3     1  UNL1       -0.2662
     12 H           3.0684    1.0055    3.3832 H       1  UNL1        0.1529
     13 H           3.0835    2.5120    2.4703 H       1  UNL1        0.1528
     14 C           5.2816    2.4968    4.1277 C.3     1  UNL1       -0.2685
     15 O           2.2401   -0.4719   -0.8086 O.2     1  UNL1       -0.5136
     16 H           5.5764    2.1887    1.9936 H       1  UNL1        0.1401
     17 H           5.5532    0.6947    2.9387 H       1  UNL1        0.1401
     18 C           6.7772    2.6613    4.4258 C.3     1  UNL1       -0.2748
     19 H           4.7790    1.9984    4.9776 H       1  UNL1        0.1376
     20 H           4.8034    3.4898    4.0331 H       1  UNL1        0.1378
     21 C           6.9873    3.5072    5.6879 C.3     1  UNL1       -0.2740
     22 H           7.2867    3.1335    3.5652 H       1  UNL1        0.1371
     23 H           7.2507    1.6699    4.5519 H       1  UNL1        0.1369
     24 C           8.4827    3.6727    5.9897 C.3     1  UNL1       -0.2511
     25 H           6.4782    3.0374    6.5498 H       1  UNL1        0.1368
     26 H           6.5159    4.4997    5.5629 H       1  UNL1        0.1369
     27 C           8.6950    4.5373    7.2325 C.3     1  UNL1       -0.4397
     28 H           8.9964    4.1268    5.1214 H       1  UNL1        0.1339
     29 H           8.9516    2.6812    6.1344 H       1  UNL1        0.1338
     30 H           8.2715    5.5392    7.1007 H       1  UNL1        0.1425
     31 H           9.7609    4.6573    7.4555 H       1  UNL1        0.1407
     32 H           8.2219    4.0928    8.1151 H       1  UNL1        0.1425
@<TRIPOS>BOND
     1     5     1    1
     2    15     2    2
     3     3     1    1
     4     2     1    1
     5     2     6    1
     6     1     4    1
     7     9     7    1
     8     6     7    1
     9     7    10    1
    10     7     8    1
    11    16    11    1
    12    13     8    1
    13     8    11    1
    14     8    12    1
    15    11    17    1
    16    11    14    1
    17    22    18    1
    18    20    14    1
    19    14    18    1
    20    14    19    1
    21    18    23    1
    22    18    21    1
    23    28    24    1
    24    26    21    1
    25    21    24    1
    26    21    25    1
    27    24    29    1
    28    24    27    1
    29    30    27    1
    30    27    31    1
    31    27    32    1
