@<TRIPOS>MOLECULE
monothiol
 9 9 0 0 0
SMALL
USER_CHARGES

@<TRIPOS>ATOM
      1 S          -1.1413   -0.0010   -0.0002 S.2     1  UNL111      0.2229
      2 C           0.0605   -1.2568    0.0000 C.ar    1  UNL111     -0.2804
      3 C           1.3135   -0.7188    0.0001 C.ar    1  UNL111     -0.1669
      4 C           1.3128    0.7193    0.0001 C.ar    1  UNL111     -0.1669
      5 C           0.0592    1.2561   -0.0001 C.ar    1  UNL111     -0.2804
      6 H          -0.2033   -2.2983    0.0001 H       1  UNL111      0.1744
      7 H           2.2321   -1.2858    0.0003 H       1  UNL111      0.1615
      8 H           2.2306    1.2870    0.0002 H       1  UNL111      0.1614
      9 H          -0.2056    2.2973   -0.0002 H       1  UNL111      0.1744
@<TRIPOS>BOND
     1     1     2   ar
     2     2     3   ar
     3     3     4   ar
     4     4     5   ar
     5     1     5   ar
     6     2     6    1
     7     3     7    1
     8     4     8    1
     9     5     9    1
