@<TRIPOS>MOLECULE
thiirene
 5 5 0 0 0
SMALL
USER_CHARGES

@<TRIPOS>ATOM
      1 S           0.7956    0.0038    0.0098 S.3     1  UNL1111    -0.1052
      2 C          -0.9356   -0.6487    0.0012 C.2     1  UNL1111    -0.1480
      3 C          -0.9379    0.6491    0.0003 C.2     1  UNL1111    -0.1480
      4 H          -1.4121   -1.5841   -0.0009 H       1  UNL1111     0.2006
      5 H          -1.4195    1.5817   -0.0026 H       1  UNL1111     0.2006
@<TRIPOS>BOND
     1     1     2    1
     2     2     3    2
     3     1     3    1
     4     2     4    1
     5     3     5    1
