@<TRIPOS>MOLECULE
cholesterol
 74 77 0 0 0
SMALL
USER_CHARGES

@<TRIPOS>ATOM
      1 C          -8.1897   -0.2925   -1.7536 C.3     1  UNL11111   -0.4531
      2 C          -8.2242    0.2672   -0.3261 C.3     1  UNL11111   -0.0600
      3 C          -9.4945   -0.2143    0.3884 C.3     1  UNL11111   -0.4578
      4 C          -6.9828   -0.1718    0.4741 C.3     1  UNL11111   -0.2894
      5 C          -5.7117    0.5290   -0.0207 C.3     1  UNL11111   -0.2687
      6 C          -4.4902    0.0683    0.7863 C.3     1  UNL11111   -0.2906
      7 C          -3.1879    0.6753    0.2167 C.3     1  UNL11111   -0.0907
      8 H          -3.2501    0.6677   -0.8975 H       1  UNL11111    0.1368
      9 C          -3.0612    2.1268    0.6976 C.3     1  UNL11111   -0.4531
     10 C          -1.9717   -0.1638    0.6516 C.3     1  UNL11111   -0.1460
     11 H          -1.9246   -0.1521    1.7636 H       1  UNL11111    0.1324
     12 C          -2.0896   -1.6407    0.1658 C.3     1  UNL11111   -0.2789
     13 C          -0.6701   -2.1225   -0.2096 C.3     1  UNL11111   -0.2808
     14 C           0.2463   -1.0131    0.3206 C.3     1  UNL11111   -0.1446
     15 H           0.3591   -1.1650    1.4252 H       1  UNL11111    0.1366
     16 C           1.6492   -0.9063   -0.2745 C.3     1  UNL11111   -0.1170
     17 H           1.5951   -0.7142   -1.3688 H       1  UNL11111    0.1431
     18 C           2.4180   -2.2165   -0.0318 C.3     1  UNL11111   -0.2847
     19 C           3.8805   -2.0580   -0.2636 C.2     1  UNL11111   -0.2024
     20 C           4.5104   -0.8787   -0.3233 C.2     1  UNL11111   -0.0133
     21 C           5.9849   -0.8374   -0.5959 C.3     1  UNL11111   -0.3526
     22 C           6.6994    0.0832    0.4044 C.3     1  UNL11111    0.1765
     23 H           6.7098   -0.3553    1.4254 H       1  UNL11111    0.1138
     24 O           8.0455    0.2817   -0.0014 O.3     1  UNL11111   -0.5761
     25 C           6.0846    1.4848    0.3900 C.3     1  UNL11111   -0.2989
     26 C           4.6036    1.3880    0.7523 C.3     1  UNL11111   -0.2876
     27 C           3.8069    0.4546   -0.1958 C.3     1  UNL11111    0.0644
     28 C           3.7269    1.0729   -1.6026 C.3     1  UNL11111   -0.4534
     29 C           2.3893    0.2572    0.4277 C.3     1  UNL11111   -0.1323
     30 H           2.5310   -0.0383    1.4970 H       1  UNL11111    0.1382
     31 C           1.5692    1.5622    0.4054 C.3     1  UNL11111   -0.2779
     32 C           0.1247    1.3857    0.9055 C.3     1  UNL11111   -0.2984
     33 C          -0.5831    0.2874    0.1004 C.3     1  UNL11111    0.0753
     34 C          -0.6919    0.6866   -1.3755 C.3     1  UNL11111   -0.4569
     35 H          -7.3088    0.0603   -2.3005 H       1  UNL11111    0.1427
     36 H          -8.1611   -1.3872   -1.7538 H       1  UNL11111    0.1439
     37 H          -9.0742    0.0148   -2.3211 H       1  UNL11111    0.1400
     38 H          -8.2436    1.3824   -0.3774 H       1  UNL11111    0.1280
     39 H          -9.5093   -1.3049    0.4860 H       1  UNL11111    0.1441
     40 H          -9.5727    0.2104    1.3944 H       1  UNL11111    0.1411
     41 H         -10.3942    0.0786   -0.1629 H       1  UNL11111    0.1424
     42 H          -7.1346    0.0509    1.5469 H       1  UNL11111    0.1357
     43 H          -6.8631   -1.2686    0.4083 H       1  UNL11111    0.1386
     44 H          -5.5550    0.3134   -1.0945 H       1  UNL11111    0.1367
     45 H          -5.8294    1.6256    0.0543 H       1  UNL11111    0.1350
     46 H          -4.6042    0.3468    1.8491 H       1  UNL11111    0.1383
     47 H          -4.4432   -1.0357    0.7735 H       1  UNL11111    0.1386
     48 H          -2.2634    2.6572    0.1669 H       1  UNL11111    0.1424
     49 H          -3.9889    2.6840    0.5256 H       1  UNL11111    0.1439
     50 H          -2.8419    2.1763    1.7692 H       1  UNL11111    0.1426
     51 H          -2.5213   -2.2718    0.9569 H       1  UNL11111    0.1303
     52 H          -2.7630   -1.7167   -0.7021 H       1  UNL11111    0.1375
     53 H          -0.4377   -3.0992    0.2378 H       1  UNL11111    0.1313
     54 H          -0.5639   -2.2440   -1.2992 H       1  UNL11111    0.1376
     55 H           2.2506   -2.5716    1.0078 H       1  UNL11111    0.1490
     56 H           2.0059   -3.0114   -0.6862 H       1  UNL11111    0.1448
     57 H           4.4198   -2.9970   -0.3753 H       1  UNL11111    0.1423
     58 H           6.4328   -1.8484   -0.5688 H       1  UNL11111    0.1422
     59 H           6.1641   -0.4679   -1.6291 H       1  UNL11111    0.1670
     60 H           8.5176   -0.5651   -0.0792 H       1  UNL11111    0.3127
     61 H           6.6235    2.1416    1.0982 H       1  UNL11111    0.1494
     62 H           6.2268    1.9480   -0.6053 H       1  UNL11111    0.1568
     63 H           4.5018    1.0230    1.7928 H       1  UNL11111    0.1404
     64 H           4.1552    2.3991    0.7388 H       1  UNL11111    0.1419
     65 H           4.7172    1.1306   -2.0688 H       1  UNL11111    0.1497
     66 H           3.0897    0.4724   -2.2612 H       1  UNL11111    0.1480
     67 H           3.3255    2.0906   -1.5768 H       1  UNL11111    0.1451
     68 H           2.0742    2.3242    1.0282 H       1  UNL11111    0.1327
     69 H           1.5428    1.9767   -0.6200 H       1  UNL11111    0.1433
     70 H           0.1219    1.1342    1.9811 H       1  UNL11111    0.1362
     71 H          -0.4132    2.3463    0.8197 H       1  UNL11111    0.1387
     72 H           0.2930    0.7955   -1.8424 H       1  UNL11111    0.1469
     73 H          -1.2407   -0.0659   -1.9522 H       1  UNL11111    0.1471
     74 H          -1.2125    1.6429   -1.4904 H       1  UNL11111    0.1429
@<TRIPOS>BOND
     1     1     2    1
     2     2     3    1
     3     2     4    1
     4     4     5    1
     5     5     6    1
     6     6     7    1
     7     7     8    1
     8     7     9    1
     9     7    10    1
    10    10    11    1
    11    10    12    1
    12    12    13    1
    13    13    14    1
    14    14    15    1
    15    14    16    1
    16    16    17    1
    17    16    18    1
    18    18    19    1
    19    19    20    2
    20    20    21    1
    21    21    22    1
    22    22    23    1
    23    22    24    1
    24    22    25    1
    25    25    26    1
    26    26    27    1
    27    20    27    1
    28    27    28    1
    29    27    29    1
    30    29    30    1
    31    16    29    1
    32    29    31    1
    33    31    32    1
    34    32    33    1
    35    10    33    1
    36    14    33    1
    37    33    34    1
    38     1    35    1
    39     1    36    1
    40     1    37    1
    41     2    38    1
    42     3    39    1
    43     3    40    1
    44     3    41    1
    45     4    42    1
    46     4    43    1
    47     5    44    1
    48     5    45    1
    49     6    46    1
    50     6    47    1
    51     9    48    1
    52     9    49    1
    53     9    50    1
    54    12    51    1
    55    12    52    1
    56    13    53    1
    57    13    54    1
    58    18    55    1
    59    18    56    1
    60    19    57    1
    61    21    58    1
    62    21    59    1
    63    24    60    1
    64    25    61    1
    65    25    62    1
    66    26    63    1
    67    26    64    1
    68    28    65    1
    69    28    66    1
    70    28    67    1
    71    31    68    1
    72    31    69    1
    73    32    70    1
    74    32    71    1
    75    34    72    1
    76    34    73    1
    77    34    74    1
