@<TRIPOS>MOLECULE
azetidine
 11 11 0 0 0
SMALL
USER_CHARGES

@<TRIPOS>ATOM
      1 N          -1.0586    0.0115   -0.0578 N.3     1  UNL1111    -0.5169
      2 C           0.0001   -1.0633   -0.0490 C.3     1  UNL1111    -0.1197
      3 C           1.1222    0.0110    0.0363 C.3     1  UNL1111    -0.3233
      4 C          -0.0003    1.0864   -0.0257 C.3     1  UNL1111    -0.1198
      5 H          -1.6207    0.0204   -0.8962 H       1  UNL1111     0.2448
      6 H          -0.1105   -1.6923    0.8470 H       1  UNL1111     0.1499
      7 H           0.0359   -1.7036   -0.9360 H       1  UNL1111     0.1221
      8 H           1.6965    0.0010    0.9645 H       1  UNL1111     0.1497
      9 H           1.8210    0.0203   -0.8003 H       1  UNL1111     0.1413
     10 H           0.0350    1.7462   -0.8983 H       1  UNL1111     0.1221
     11 H          -0.1112    1.6952    0.8844 H       1  UNL1111     0.1499
@<TRIPOS>BOND
     1     1     2    1
     2     2     3    1
     3     3     4    1
     4     1     4    1
     5     1     5    1
     6     2     6    1
     7     2     7    1
     8     3     8    1
     9     3     9    1
    10     4    10    1
    11     4    11    1
