@<TRIPOS>MOLECULE
selenacyclopentane
 13 13 0 0 0
SMALL
USER_CHARGES

@<TRIPOS>ATOM
      1 SE         -0.8697    0.0072   -0.2465 Se      1  UNL1111     0.1043
      2 C           0.5017   -1.3843    0.0104 C.3     1  UNL1111    -0.3886
      3 C           1.8427   -0.7088   -0.2151 C.3     1  UNL1111    -0.2590
      4 C           1.7810    0.7446    0.2955 C.3     1  UNL1111    -0.2590
      5 C           0.5140    1.4096   -0.2123 C.3     1  UNL1111    -0.3886
      6 H           0.3822   -1.7687    1.0251 H       1  UNL1111     0.1549
      7 H           0.2935   -2.1863   -0.6989 H       1  UNL1111     0.1549
      8 H           2.6536   -1.2611    0.2957 H       1  UNL1111     0.1419
      9 H           2.1046   -0.7155   -1.2911 H       1  UNL1111     0.1438
     10 H           1.8058    0.7530    1.4027 H       1  UNL1111     0.1438
     11 H           2.6789    1.3030   -0.0296 H       1  UNL1111     0.1419
     12 H           0.6095    1.7907   -1.2308 H       1  UNL1111     0.1549
     13 H           0.1542    2.2117    0.4333 H       1  UNL1111     0.1549
@<TRIPOS>BOND
     1     1     2    1
     2     2     3    1
     3     3     4    1
     4     4     5    1
     5     1     5    1
     6     2     6    1
     7     2     7    1
     8     3     8    1
     9     3     9    1
    10     4    10    1
    11     4    11    1
    12     5    12    1
    13     5    13    1
