@<TRIPOS>MOLECULE
oxirene
 5 5 0 0 0
SMALL
USER_CHARGES

@<TRIPOS>ATOM
      1 O           0.7924    0.0083    0.0094 O.2     1  UNL1111    -0.3570
      2 C          -0.4973   -0.6482   -0.0004 C.2     1  UNL1111    -0.0217
      3 C          -0.5047    0.6484    0.0027 C.2     1  UNL1111    -0.0207
      4 H          -0.7606   -1.6537   -0.0045 H       1  UNL1111     0.1997
      5 H          -0.7823    1.6500    0.0035 H       1  UNL1111     0.1997
@<TRIPOS>BOND
     1     1     2    1
     2     2     3    2
     3     1     3    1
     4     2     4    1
     5     3     5    1
