@<TRIPOS>MOLECULE
pyrrolidine
 14 14 0 0 0
SMALL
USER_CHARGES

@<TRIPOS>ATOM
      1 N          -1.2651    0.1820   -0.3179 N.3     1  UNL111     -0.5179
      2 C          -0.6077   -1.0853    0.0912 C.3     1  UNL111     -0.1099
      3 C           0.9231   -0.8807   -0.0216 C.3     1  UNL111     -0.3005
      4 C           1.1293    0.6452   -0.0566 C.3     1  UNL111     -0.3000
      5 C          -0.2926    1.2562    0.0081 C.3     1  UNL111     -0.1101
      6 H          -1.4735    0.1745   -1.3142 H       1  UNL111      0.2445
      7 H          -0.8995   -1.2863    1.1441 H       1  UNL111      0.1446
      8 H          -0.9662   -1.9342   -0.5151 H       1  UNL111      0.1268
      9 H           1.4495   -1.3430    0.8264 H       1  UNL111      0.1401
     10 H           1.3215   -1.3561   -0.9309 H       1  UNL111      0.1357
     11 H           1.7467    0.9892    0.7866 H       1  UNL111      0.1401
     12 H           1.6541    0.9546   -0.9730 H       1  UNL111      0.1357
     13 H          -0.4120    2.1195   -0.6684 H       1  UNL111      0.1266
     14 H          -0.5220    1.6092    1.0360 H       1  UNL111      0.1445
@<TRIPOS>BOND
     1     1     2    1
     2     2     3    1
     3     3     4    1
     4     4     5    1
     5     1     5    1
     6     1     6    1
     7     2     7    1
     8     2     8    1
     9     3     9    1
    10     3    10    1
    11     4    11    1
    12     4    12    1
    13     5    13    1
    14     5    14    1
