@<TRIPOS>MOLECULE
selenophene
 9 9 0 0 0
SMALL
USER_CHARGES

@<TRIPOS>ATOM
      1 SE         -0.8161    0.0021   -0.0067 Se      1  UNL1111     0.2768
      2 C           0.5651   -1.3010   -0.0025 C.ar    1  UNL1111    -0.2960
      3 C           1.7831   -0.7262    0.0004 C.ar    1  UNL1111    -0.1632
      4 C           1.7842    0.7265    0.0004 C.ar    1  UNL1111    -0.1632
      5 C           0.5672    1.3032   -0.0026 C.ar    1  UNL1111    -0.2960
      6 H           0.3098   -2.3351   -0.0024 H       1  UNL1111     0.1627
      7 H           2.7212   -1.2665    0.0029 H       1  UNL1111     0.1580
      8 H           2.7232    1.2652    0.0028 H       1  UNL1111     0.1580
      9 H           0.3133    2.3376   -0.0025 H       1  UNL1111     0.1627
@<TRIPOS>BOND
     1     1     2   ar
     2     2     3   ar
     3     3     4   ar
     4     4     5   ar
     5     1     5   ar
     6     2     6    1
     7     3     7    1
     8     4     8    1
     9     5     9    1
