@<TRIPOS>MOLECULE
../pm7/W/B/WBJINCZRORDGAQ-UHFFFAOYSA-N.out
 11 10 0 0 0
SMALL
MULLIKEN_CHARGES

@<TRIPOS>ATOM
      1 C           0.0100    0.0100    0.0100 C.2     1  UNL1        0.4990
      2 O           1.3571    0.0100    0.0100 O.3     1  UNL1       -0.4378
      3 C           2.0110    1.2893    0.0100 C.3     1  UNL1        0.0089
      4 C           3.4926    0.9534    0.0069 C.3     1  UNL1       -0.4634
      5 H           1.6943    1.8411    0.9127 H       1  UNL1        0.1342
      6 H           1.6912    1.8430   -0.8903 H       1  UNL1        0.1343
      7 O          -0.6491    1.0161    0.0100 O.2     1  UNL1       -0.4999
      8 H          -0.3306   -1.0251    0.0100 H       1  UNL1        0.1491
      9 H           3.7704    0.3608    0.8888 H       1  UNL1        0.1602
     10 H           4.1043    1.8628    0.0042 H       1  UNL1        0.1552
     11 H           3.7662    0.3588   -0.8749 H       1  UNL1        0.1602
@<TRIPOS>BOND
     1     6     3    1
     2    11     4    1
     3    10     4    1
     4     4     3    1
     5     4     9    1
     6     8     1    1
     7     2     1    1
     8     2     3    1
     9     1     7    2
    10     3     5    1
