@<TRIPOS>MOLECULE
../pm7/I/C/ICMAFTSLXCXHRK-UHFFFAOYSA-N.out
 23 22 0 0 0
SMALL
MULLIKEN_CHARGES

@<TRIPOS>ATOM
      1 C           0.0100    0.0100    0.0100 C.2     1  UNL1        0.6076
      2 O           1.3667    0.0100    0.0100 O.3     1  UNL1       -0.4457
      3 C           2.0042    1.2966    0.0100 C.3     1  UNL1        0.0107
      4 C           3.4898    0.9749    0.0110 C.3     1  UNL1       -0.4626
      5 H           1.6806    1.8469    0.9110 H       1  UNL1        0.1333
      6 H           1.6816    1.8466   -0.8916 H       1  UNL1        0.1336
      7 O          -0.6321    1.0282    0.0035 O.2     1  UNL1       -0.5136
      8 H           3.7683    0.3800    0.8909 H       1  UNL1        0.1591
      9 H           4.0923    1.8901    0.0157 H       1  UNL1        0.1538
     10 H           3.7712    0.3872   -0.8727 H       1  UNL1        0.1590
     11 C          -0.4856   -1.4039    0.0186 C.3     1  UNL1       -0.3538
     12 C          -2.0165   -1.4250    0.0205 C.3     1  UNL1       -0.2533
     13 H          -0.0805   -1.9396    0.9037 H       1  UNL1        0.1770
     14 H          -0.0827   -1.9497   -0.8612 H       1  UNL1        0.1771
     15 C          -2.5395   -2.8659    0.0328 C.3     1  UNL1       -0.2480
     16 H          -2.4063   -0.8808   -0.8629 H       1  UNL1        0.1534
     17 H          -2.4043   -0.8661    0.8956 H       1  UNL1        0.1534
     18 C          -4.0680   -2.8831    0.0335 C.3     1  UNL1       -0.4385
     19 H          -2.1563   -3.4037    0.9208 H       1  UNL1        0.1341
     20 H          -2.1569   -3.4186   -0.8462 H       1  UNL1        0.1341
     21 H          -4.4752   -2.3697    0.9121 H       1  UNL1        0.1450
     22 H          -4.4545   -3.9080    0.0438 H       1  UNL1        0.1392
     23 H          -4.4758   -2.3871   -0.8548 H       1  UNL1        0.1450
@<TRIPOS>BOND
     1     6     3    1
     2    10     4    1
     3    16    12    1
     4    14    11    1
     5    23    18    1
     6    20    15    1
     7     7     1    2
     8     1     2    1
     9     1    11    1
    10     3     2    1
    11     3     4    1
    12     3     5    1
    13     4     9    1
    14     4     8    1
    15    11    12    1
    16    11    13    1
    17    12    15    1
    18    12    17    1
    19    15    18    1
    20    15    19    1
    21    18    22    1
    22    18    21    1
