@<TRIPOS>MOLECULE
sucrose
 45 46 0 0 0
SMALL
USER_CHARGES

@<TRIPOS>ATOM
      1 C           1.2887   -1.2897    0.4095 C.3     1  UNL111111    0.3811
      2 C           1.8781   -1.7758   -0.9548 C.3     1  UNL111111    0.0669
      3 C          -0.8453   -0.3266    1.0822 C.3     1  UNL111111    0.2741
      4 C           2.9122    0.2932   -0.1470 C.3     1  UNL111111    0.0237
      5 C           2.7672   -0.5926   -1.4066 C.3     1  UNL111111    0.0508
      6 C          -2.1376   -0.9747    0.5210 C.3     1  UNL111111    0.0292
      7 C          -1.3748    1.8128    0.1187 C.3     1  UNL111111    0.0353
      8 C          -2.7145   -0.1552   -0.6427 C.3     1  UNL111111    0.0442
      9 C          -2.7847    1.3380   -0.2799 C.3     1  UNL111111    0.0788
     10 C           1.1374   -2.3970    1.4646 C.3     1  UNL111111   -0.0708
     11 C           2.2651    1.6775   -0.3252 C.3     1  UNL111111   -0.0466
     12 C          -1.3701    3.2634    0.6225 C.3     1  UNL111111   -0.0053
     13 H           1.1500   -2.4189   -2.6689 H       1  UNL111111    0.3307
     14 H           1.8794   -1.3444    2.9669 H       1  UNL111111    0.3322
     15 H           4.6508   -0.5094   -2.0322 H       1  UNL111111    0.3265
     16 H          -1.0943   -2.2598   -0.5633 H       1  UNL111111    0.3459
     17 H           1.1894    1.5034    1.3168 H       1  UNL111111    0.3507
     18 H          -4.1160   -1.5128   -0.9541 H       1  UNL111111    0.3368
     19 H          -3.9248    1.7086   -1.8420 H       1  UNL111111    0.3365
     20 H           0.6133    3.3357    0.6185 H       1  UNL111111    0.3460
     21 O           0.8161   -2.0106   -1.8391 O.3     1  UNL111111   -0.5331
     22 O           1.0639   -1.8589    2.7618 O.3     1  UNL111111   -0.5227
     23 O           3.9958   -1.1835   -1.7616 O.3     1  UNL111111   -0.5555
     24 O          -1.8614   -2.2756    0.0660 O.3     1  UNL111111   -0.5542
     25 O           1.8248    2.1651    0.9248 O.3     1  UNL111111   -0.5331
     26 O          -4.0567   -0.5353   -0.8752 O.3     1  UNL111111   -0.5672
     27 O          -3.1209    2.0935   -1.4230 O.3     1  UNL111111   -0.5441
     28 O          -0.1489    3.8939    0.3370 O.3     1  UNL111111   -0.5791
     29 O           0.1269   -0.5915    0.0837 O.3     1  UNL111111   -0.4840
     30 O           2.2471   -0.3832    0.9172 O.3     1  UNL111111   -0.4338
     31 O          -0.9474    1.0513    1.2475 O.3     1  UNL111111   -0.4400
     32 H           2.4788   -2.7048   -0.8353 H       1  UNL111111    0.1546
     33 H           0.1735   -2.9399    1.3471 H       1  UNL111111    0.1808
     34 H           1.9753   -3.1166    1.4153 H       1  UNL111111    0.1388
     35 H          -0.5603   -0.6725    2.1013 H       1  UNL111111    0.1820
     36 H           3.9600    0.3616    0.2161 H       1  UNL111111    0.1632
     37 H           2.3480   -0.0630   -2.2857 H       1  UNL111111    0.1502
     38 H          -2.8904   -1.1335    1.3271 H       1  UNL111111    0.1712
     39 H           2.9928    2.4370   -0.6649 H       1  UNL111111    0.1489
     40 H           1.4015    1.6494   -1.0184 H       1  UNL111111    0.1368
     41 H          -0.6551    1.6750   -0.7180 H       1  UNL111111    0.1564
     42 H          -2.1412   -0.3200   -1.5840 H       1  UNL111111    0.1508
     43 H          -3.5430    1.5317    0.5100 H       1  UNL111111    0.1491
     44 H          -2.1133    3.8781    0.0729 H       1  UNL111111    0.1643
     45 H          -1.5585    3.3164    1.7115 H       1  UNL111111    0.1329
@<TRIPOS>BOND
     1     1    29    1
     2     1    30    1
     3     1     2    1
     4     1    10    1
     5     3    29    1
     6    30     4    1
     7     2     5    1
     8     2    21    1
     9    10    22    1
    10     3    31    1
    11     3     6    1
    12     4    11    1
    13     5    23    1
    14    31     7    1
    15     6     8    1
    16     6    24    1
    17    11    25    1
    18     7     9    1
    19     7    12    1
    20     8    26    1
    21     9    27    1
    22    12    28    1
    23     4     5    1
    24     8     9    1
    25     2    32    1
    26    10    33    1
    27    10    34    1
    28     3    35    1
    29     4    36    1
    30     5    37    1
    31    21    13    1
    32    22    14    1
    33     6    38    1
    34    11    39    1
    35    11    40    1
    36    23    15    1
    37     7    41    1
    38     8    42    1
    39    24    16    1
    40    25    17    1
    41     9    43    1
    42    12    44    1
    43    12    45    1
    44    26    18    1
    45    27    19    1
    46    28    20    1
