@<TRIPOS>MOLECULE
(s)-(+)-ibuprofen
 33 33 0 0 0
SMALL
USER_CHARGES

@<TRIPOS>ATOM
      1 C          -0.3992   -0.5779   -1.3304 C.ar    1  UNL11111   -0.1427
      2 C          -0.6089    0.4299    0.8533 C.ar    1  UNL11111   -0.1375
      3 C           0.9326   -0.8801   -1.0618 C.ar    1  UNL11111   -0.1834
      4 C           0.7213    0.1243    1.1226 C.ar    1  UNL11111   -0.1791
      5 C           2.9393   -0.8379    0.4411 C.3     1  UNL11111   -0.3115
      6 C          -2.7811    1.9430   -0.8247 C.3     1  UNL11111   -0.4324
      7 C           3.7304    1.5663    0.4012 C.3     1  UNL11111   -0.4566
      8 C           5.3181   -0.2944   -0.1755 C.3     1  UNL11111   -0.4573
      9 C          -1.1742    0.0821   -0.3752 C.ar    1  UNL11111   -0.0363
     10 C           1.5015   -0.5272    0.1643 C.ar    1  UNL11111    0.0312
     11 O          -3.5800    0.3235    1.5587 O.2     1  UNL11111   -0.5082
     12 O          -4.2718   -1.0865   -0.0195 O.3     1  UNL11111   -0.5653
     13 C          -3.4933   -0.0648    0.4246 C.2     1  UNL11111    0.6410
     14 H          -4.8648   -1.4674    0.6731 H       1  UNL11111    0.3541
     15 C          -2.6037    0.4282   -0.6906 C.3     1  UNL11111   -0.1649
     16 C           3.8647    0.1873   -0.2525 C.3     1  UNL11111   -0.0463
     17 H          -2.9165   -0.0641   -1.6525 H       1  UNL11111    0.1806
     18 H          -0.8317   -0.8600   -2.2887 H       1  UNL11111    0.1512
     19 H          -1.2137    0.9370    1.6089 H       1  UNL11111    0.1724
     20 H          -3.7973    2.2062   -1.1404 H       1  UNL11111    0.1517
     21 H          -2.5860    2.4586    0.1266 H       1  UNL11111    0.1659
     22 H          -2.0842    2.3536   -1.5666 H       1  UNL11111    0.1589
     23 H           1.5333   -1.3925   -1.8102 H       1  UNL11111    0.1526
     24 H           1.1541    0.3960    2.0835 H       1  UNL11111    0.1561
     25 H           3.1462   -0.8501    1.5291 H       1  UNL11111    0.1524
     26 H           3.1857   -1.8600    0.0886 H       1  UNL11111    0.1508
     27 H           3.5665    0.2669   -1.3262 H       1  UNL11111    0.1322
     28 H           4.0445    1.5489    1.4497 H       1  UNL11111    0.1450
     29 H           4.3429    2.3120   -0.1159 H       1  UNL11111    0.1427
     30 H           2.6915    1.9174    0.3738 H       1  UNL11111    0.1505
     31 H           5.4489   -1.2603   -0.6744 H       1  UNL11111    0.1417
     32 H           5.9956    0.4187   -0.6580 H       1  UNL11111    0.1448
     33 H           5.6496   -0.4088    0.8621 H       1  UNL11111    0.1457
@<TRIPOS>BOND
     1    18     1    1
     2    23     3    1
     3    17    15    1
     4    22     6    1
     5     1     3   ar
     6     1     9   ar
     7    27    16    1
     8    20     6    1
     9     3    10   ar
    10     6    15    1
    11     6    21    1
    12    15     9    1
    13    15    13    1
    14    31     8    1
    15    32     8    1
    16     9     2   ar
    17    16     8    1
    18    16     7    1
    19    16     5    1
    20     8    33    1
    21    29     7    1
    22    12    13    1
    23    12    14    1
    24    26     5    1
    25    10     5    1
    26    10     4   ar
    27    30     7    1
    28     7    28    1
    29    13    11    2
    30     5    25    1
    31     2     4   ar
    32     2    19    1
    33     4    24    1
