@<TRIPOS>MOLECULE
C13H18O2
   33    33     1     0     0
SMALL
NO_CHARGES


@<TRIPOS>ATOM
      1 C1         -0.3647   -0.7837   -1.3547 C.ar      1 <1>         0.0000
      2 C2         -0.5270    0.4590    0.6854 C.ar      1 <1>         0.0000
      3 C3          0.9618   -1.0600   -1.0808 C.ar      1 <1>         0.0000
      4 C4          0.7994    0.1824    0.9595 C.ar      1 <1>         0.0000
      5 C5          2.9898   -0.8785    0.3750 C.3       1 <1>         0.0000
      6 C6         -2.7525    1.7912   -0.8614 C.3       1 <1>         0.0000
      7 C7          3.5836    1.5461    0.4796 C.3       1 <1>         0.0000
      8 C8          5.3457   -0.1508   -0.0284 C.3       1 <1>         0.0000
      9 C9         -1.1091   -0.0244   -0.4714 C.ar      1 <1>         0.0000
     10 C10         1.5438   -0.5769    0.0762 C.ar      1 <1>         0.0000
     11 O1         -2.9164   -0.8567    1.2640 O.2       1 <1>         0.0000
     12 O2         -4.7542   -0.1262    0.2779 O.3       1 <1>         0.0000
     13 C11        -3.4215   -0.2770    0.3319 C.2       1 <1>         0.0000
     14 H1         -5.2680   -0.4984    1.0077 H         1 <1>         0.0000
     15 C12        -2.5553    0.2767   -0.7699 C.3       1 <1>         0.0000
     16 C13         3.8736    0.2181   -0.2227 C.3       1 <1>         0.0000
     17 H2         -2.8342   -0.1839   -1.7176 H         1 <1>         0.0000
     18 H3         -0.8181   -1.1573   -2.2608 H         1 <1>         0.0000
     19 H4         -1.1086    1.0525    1.3753 H         1 <1>         0.0000
     20 H5         -3.7984    2.0090   -1.0773 H         1 <1>         0.0000
     21 H6         -2.4736    2.2518    0.0863 H         1 <1>         0.0000
     22 H7         -2.1259    2.1917   -1.6584 H         1 <1>         0.0000
     23 H8          1.5434   -1.6535   -1.7707 H         1 <1>         0.0000
     24 H9          1.2543    0.5604    1.8631 H         1 <1>         0.0000
     25 H10         3.1376   -0.9163    1.4543 H         1 <1>         0.0000
     26 H11         3.2583   -1.8402   -0.0623 H         1 <1>         0.0000
     27 H12         3.6610    0.3161   -1.2873 H         1 <1>         0.0000
     28 H13         3.7962    1.4481    1.5442 H         1 <1>         0.0000
     29 H14         4.2132    2.3274    0.0538 H         1 <1>         0.0000
     30 H15         2.5349    1.8089    0.3412 H         1 <1>         0.0000
     31 H16         5.5522   -1.0969   -0.5287 H         1 <1>         0.0000
     32 H17         5.9753    0.6304   -0.4542 H         1 <1>         0.0000
     33 H18         5.5582   -0.2488    1.0362 H         1 <1>         0.0000
@<TRIPOS>BOND
     1    9   15 1
     2    9    1 ar
     3    9    2 ar
     4   15   13 1
     5   15    6 1
     6    1    3 ar
     7    2    4 ar
     8   13   11 2
     9   13   12 1
    10    3   10 ar
    11   10    5 1
    12    5   16 1
    13   16    7 1
    14   16    8 1
    15    4   10 ar
    16   15   17 1
    17    1   18 1
    18    2   19 1
    19    6   20 1
    20    6   21 1
    21    6   22 1
    22    3   23 1
    23    4   24 1
    24    5   25 1
    25    5   26 1
    26   16   27 1
    27    7   28 1
    28    7   29 1
    29    7   30 1
    30    8   31 1
    31    8   32 1
    32    8   33 1
    33   12   14 1
