@<TRIPOS>MOLECULE
ethyl nonanoate
 35 34 0 0 0
SMALL
USER_CHARGES

@<TRIPOS>ATOM
      1 C          -0.0100    0.0100    0.0100 C.2     1  UNL1111111111    0.6073
      2 O           1.3469    0.0100    0.0100 O.3     1  UNL1111111111   -0.4466
      3 C           1.9841    1.2965    0.0100 C.3     1  UNL1111111111    0.0109
      4 C           3.4696    0.9748    0.0102 C.3     1  UNL1111111111   -0.4625
      5 H           1.6609    1.8463    0.9114 H       1  UNL1111111111    0.1333
      6 H           1.6609    1.8464   -0.8914 H       1  UNL1111111111    0.1335
      7 O          -0.6513    1.0288    0.0045 O.2     1  UNL1111111111   -0.5141
      8 H           3.7501    0.3858    0.8934 H       1  UNL1111111111    0.1590
      9 H           4.0722    1.8900    0.0074 H       1  UNL1111111111    0.1538
     10 H           3.7490    0.3810   -0.8702 H       1  UNL1111111111    0.1591
     11 C          -0.5068   -1.4033    0.0176 C.3     1  UNL1111111111   -0.3519
     12 C          -2.0375   -1.4230    0.0242 C.3     1  UNL1111111111   -0.2537
     13 H          -0.0995   -1.9405    0.9009 H       1  UNL1111111111    0.1772
     14 H          -0.1070   -1.9484   -0.8642 H       1  UNL1111111111    0.1771
     15 C          -2.5588   -2.8636    0.0542 C.3     1  UNL1111111111   -0.2691
     16 H          -2.4281   -0.8875   -0.8643 H       1  UNL1111111111    0.1531
     17 H          -2.4206   -0.8538    0.8950 H       1  UNL1111111111    0.1536
     18 C          -4.0929   -2.8773    0.0662 C.3     1  UNL1111111111   -0.2693
     19 H          -2.1698   -3.3919    0.9449 H       1  UNL1111111111    0.1370
     20 H          -2.1833   -3.4253   -0.8216 H       1  UNL1111111111    0.1368
     21 C          -4.6213   -4.3149    0.1485 C.3     1  UNL1111111111   -0.2778
     22 H          -4.4842   -2.3818   -0.8422 H       1  UNL1111111111    0.1388
     23 H          -4.4722   -2.2853    0.9203 H       1  UNL1111111111    0.1393
     24 C          -6.1550   -4.3296    0.1481 C.3     1  UNL1111111111   -0.2723
     25 H          -4.2391   -4.8074    1.0619 H       1  UNL1111111111    0.1359
     26 H          -4.2375   -4.9105   -0.7004 H       1  UNL1111111111    0.1356
     27 C          -6.6860   -5.7634    0.2785 C.3     1  UNL1111111111   -0.2518
     28 H          -6.5385   -3.8682   -0.7810 H       1  UNL1111111111    0.1373
     29 H          -6.5421   -3.7073    0.9763 H       1  UNL1111111111    0.1375
     30 C          -8.2143   -5.7824    0.2514 C.3     1  UNL1111111111   -0.4394
     31 H          -6.3190   -6.2186    1.2177 H       1  UNL1111111111    0.1334
     32 H          -6.2853   -6.3915   -0.5394 H       1  UNL1111111111    0.1334
     33 H          -8.6368   -5.1861    1.0679 H       1  UNL1111111111    0.1428
     34 H          -8.6008   -6.8023    0.3542 H       1  UNL1111111111    0.1403
     35 H          -8.6033   -5.3759   -0.6888 H       1  UNL1111111111    0.1426
@<TRIPOS>BOND
     1    34    30    1
     2    32    27    1
     3    31    27    1
     4    30    27    1
     5    30    35    1
     6    30    33    1
     7    27    24    1
     8    26    21    1
     9    25    21    1
    10    24    21    1
    11    24    28    1
    12    24    29    1
    13    21    18    1
    14    20    15    1
    15    19    15    1
    16    18    15    1
    17    18    22    1
    18    18    23    1
    19    15    12    1
    20    14    11    1
    21    13    11    1
    22    12    11    1
    23    12    16    1
    24    12    17    1
    25    11     1    1
    26     1     2    1
    27     1     7    2
    28     2     3    1
    29    10     4    1
    30     8     4    1
    31     4     3    1
    32     4     9    1
    33     3     5    1
    34     3     6    1
