@<TRIPOS>MOLECULE
oil of grapes
 29 28 0 0 0
SMALL
USER_CHARGES

@<TRIPOS>ATOM
      1 C          -0.0100    0.0100    0.0100 C.2     1  UNL1111111    0.6073
      2 O           1.3468    0.0100    0.0100 O.3     1  UNL1111111   -0.4468
      3 C           1.9844    1.2962    0.0100 C.3     1  UNL1111111    0.0109
      4 C           3.4697    0.9743   -0.0187 C.3     1  UNL1111111   -0.4625
      5 H           1.6764    1.8368    0.9223 H       1  UNL1111111    0.1330
      6 H           1.6462    1.8555   -0.8801 H       1  UNL1111111    0.1337
      7 O          -0.6517    1.0285    0.0101 O.2     1  UNL1111111   -0.5139
      8 H           3.7632    0.3690    0.8492 H       1  UNL1111111    0.1591
      9 H           4.0725    1.8893   -0.0140 H       1  UNL1111111    0.1538
     10 H           3.7354    0.3968   -0.9139 H       1  UNL1111111    0.1589
     11 C          -0.5060   -1.4038    0.0100 C.3     1  UNL1111111   -0.3509
     12 C          -2.0368   -1.4250    0.0015 C.3     1  UNL1111111   -0.2533
     13 H          -0.1075   -1.9426    0.8963 H       1  UNL1111111    0.1771
     14 H          -0.0970   -1.9467   -0.8690 H       1  UNL1111111    0.1771
     15 C          -2.5571   -2.8662    0.0051 C.3     1  UNL1111111   -0.2722
     16 H          -2.4197   -0.8775   -0.8831 H       1  UNL1111111    0.1533
     17 H          -2.4299   -0.8692    0.8764 H       1  UNL1111111    0.1535
     18 C          -4.0908   -2.8820   -0.0185 C.3     1  UNL1111111   -0.2693
     19 H          -2.1880   -3.4034    0.8989 H       1  UNL1111111    0.1369
     20 H          -2.1608   -3.4183   -0.8676 H       1  UNL1111111    0.1369
     21 C          -4.6195   -4.3223   -0.0077 C.3     1  UNL1111111   -0.2540
     22 H          -4.4632   -2.3497   -0.9139 H       1  UNL1111111    0.1391
     23 H          -4.4908   -2.3265    0.8503 H       1  UNL1111111    0.1392
     24 C          -6.1478   -4.3411   -0.0354 C.3     1  UNL1111111   -0.4399
     25 H          -4.2515   -4.8545    0.8897 H       1  UNL1111111    0.1330
     26 H          -4.2194   -4.8798   -0.8753 H       1  UNL1111111    0.1330
     27 H          -6.5708   -3.8205    0.8312 H       1  UNL1111111    0.1434
     28 H          -6.5329   -5.3666   -0.0234 H       1  UNL1111111    0.1402
     29 H          -6.5384   -3.8535   -0.9356 H       1  UNL1111111    0.1433
@<TRIPOS>BOND
     1    28    24    1
     2    26    21    1
     3    25    21    1
     4    24    21    1
     5    24    29    1
     6    24    27    1
     7    21    18    1
     8    20    15    1
     9    19    15    1
    10    18    15    1
    11    18    22    1
    12    18    23    1
    13    15    12    1
    14    14    11    1
    15    13    11    1
    16    12    11    1
    17    12    16    1
    18    12    17    1
    19    11     1    1
    20     1     2    1
    21     1     7    2
    22     2     3    1
    23     8     4    1
    24    10     4    1
    25     4     3    1
    26     4     9    1
    27     3     5    1
    28     3     6    1
