@<TRIPOS>MOLECULE
thiirane
 7 7 0 0 0
SMALL
USER_CHARGES

@<TRIPOS>ATOM
      1 S           0.8169    0.0032    0.0149 S.3     1  UNL111     -0.0722
      2 C          -0.8794   -0.7425    0.0093 C.3     1  UNL111     -0.3001
      3 C          -0.8813    0.7448    0.0093 C.3     1  UNL111     -0.3001
      4 H          -1.1915   -1.2822   -0.8855 H       1  UNL111      0.1681
      5 H          -1.1973   -1.2837    0.9008 H       1  UNL111      0.1681
      6 H          -1.1998    1.2858    0.9010 H       1  UNL111      0.1681
      7 H          -1.1950    1.2838   -0.8854 H       1  UNL111      0.1680
@<TRIPOS>BOND
     1     1     2    1
     2     2     3    1
     3     1     3    1
     4     2     4    1
     5     2     5    1
     6     3     6    1
     7     3     7    1
