@<TRIPOS>MOLECULE
pregabalin
 28 27 0 0 0
SMALL
USER_CHARGES

@<TRIPOS>ATOM
      1 C           0.0074   -0.0133   -0.1122 C.3     1  UNL111111   -0.0989
      2 C          -1.2864    0.8104   -0.2438 C.3     1  UNL111111   -0.3726
      3 C           1.2107    0.9096   -0.3779 C.3     1  UNL111111   -0.3035
      4 C           0.0128   -1.2154   -1.0880 C.3     1  UNL111111   -0.1184
      5 C           3.7163    0.9787   -0.5881 C.3     1  UNL111111   -0.4614
      6 C           2.6761    0.3823    1.6197 C.3     1  UNL111111   -0.4532
      7 H          -1.0532   -2.3590    0.2653 H       1  UNL111111    0.2711
      8 H          -0.3940   -3.2457   -0.9478 H       1  UNL111111    0.2443
      9 O          -2.6146   -1.0337    0.6860 O.2     1  UNL111111   -0.5245
     10 O          -3.6057    0.8246   -0.0150 O.3     1  UNL111111   -0.5716
     11 C          -2.4989    0.0608    0.1988 C.2     1  UNL111111    0.6588
     12 H          -4.4498    0.3915    0.2622 H       1  UNL111111    0.3582
     13 C           2.5357    0.2783    0.0969 C.3     1  UNL111111   -0.0562
     14 N          -0.2433   -2.4644   -0.3317 N.3     1  UNL111111   -0.6523
     15 H           0.0822   -0.4051    0.9365 H       1  UNL111111    0.1731
     16 H          -1.2065    1.7454    0.3586 H       1  UNL111111    0.1861
     17 H          -1.4219    1.1648   -1.2895 H       1  UNL111111    0.1841
     18 H           1.2713    1.1459   -1.4560 H       1  UNL111111    0.1384
     19 H           1.0702    1.8813    0.1311 H       1  UNL111111    0.1402
     20 H          -0.7109   -1.0532   -1.9126 H       1  UNL111111    0.1071
     21 H           1.0129   -1.3247   -1.5659 H       1  UNL111111    0.1457
     22 H           2.5466   -0.8044   -0.1861 H       1  UNL111111    0.1464
     23 H           3.7227    2.0531   -0.3793 H       1  UNL111111    0.1423
     24 H           4.6720    0.5724   -0.2398 H       1  UNL111111    0.1450
     25 H           3.6838    0.8497   -1.6746 H       1  UNL111111    0.1399
     26 H           3.6004   -0.0955    1.9627 H       1  UNL111111    0.1423
     27 H           2.6967    1.4234    1.9550 H       1  UNL111111    0.1396
     28 H           1.8453   -0.1190    2.1308 H       1  UNL111111    0.1500
@<TRIPOS>BOND
     1     9    11    2
     2    10    11    1
     3    14     4    1
     4     1     2    1
     5     1     3    1
     6     1     4    1
     7     2    11    1
     8     3    13    1
     9    13     5    1
    10    13     6    1
    11    10    12    1
    12    14     7    1
    13    14     8    1
    14     1    15    1
    15     2    16    1
    16     2    17    1
    17     3    18    1
    18     3    19    1
    19     4    20    1
    20     4    21    1
    21    13    22    1
    22     5    23    1
    23     5    24    1
    24     5    25    1
    25     6    26    1
    26     6    27    1
    27     6    28    1
