@<TRIPOS>MOLECULE
thiolane
 13 13 0 0 0
SMALL
USER_CHARGES

@<TRIPOS>ATOM
      1 S          -1.2471   -0.0094   -0.1787 S.3     1  UNL111     -0.0461
      2 C          -0.0130   -1.3627    0.0151 C.3     1  UNL111     -0.3118
      3 C           1.3620   -0.7333   -0.1935 C.3     1  UNL111     -0.2656
      4 C           1.3147    0.7393    0.2528 C.3     1  UNL111     -0.2656
      5 C          -0.0057    1.3510   -0.2059 C.3     1  UNL111     -0.3113
      6 H          -0.1147   -1.8086    1.0189 H       1  UNL111      0.1554
      7 H          -0.2221   -2.1596   -0.7167 H       1  UNL111      0.1563
      8 H           2.1387   -1.2842    0.3684 H       1  UNL111      0.1430
      9 H           1.6631   -0.7961   -1.2574 H       1  UNL111      0.1451
     10 H           1.4143    0.8053    1.3541 H       1  UNL111      0.1457
     11 H           2.1751    1.2987   -0.1584 H       1  UNL111      0.1430
     12 H           0.0633    1.7603   -1.2277 H       1  UNL111      0.1553
     13 H          -0.3400    2.1685    0.4525 H       1  UNL111      0.1565
@<TRIPOS>BOND
     1     1     2    1
     2     2     3    1
     3     3     4    1
     4     4     5    1
     5     1     5    1
     6     2     6    1
     7     2     7    1
     8     3     8    1
     9     3     9    1
    10     4    10    1
    11     4    11    1
    12     5    12    1
    13     5    13    1
