@<TRIPOS>MOLECULE
erythromycin
 118 120 0 0 0
SMALL
GASTEIGER

@<TRIPOS>ATOM
      1 C           4.6653    2.2735   -0.5820 C.3     1  UNL111111111   -2.0252
      2 C           4.3364    0.7689   -0.5185 C.3     1  UNL111111111    2.8154
      3 C           5.4911   -0.1582   -0.0414 C.3     1  UNL111111111   -0.1944
      4 C           4.9312   -1.6135    0.0572 C.3     1  UNL111111111    0.9064
      5 O           3.9397   -1.4982    1.0850 O.3     1  UNL111111111   -1.0177
      6 C           1.8480   -1.7954    2.0653 C.3     1  UNL111111111   -0.1195
      7 C           0.7018   -1.0525    1.3162 C.3     1  UNL111111111    1.1436
      8 C           0.3203    0.2865    2.0007 C.3     1  UNL111111111   -1.7965
      9 C          -0.3263    1.2215    0.9509 C.3     1  UNL111111111    3.8762
     10 C           0.3328    2.6398    0.8841 C.3     1  UNL111111111   -1.2855
     11 C           1.8122    2.4529    0.4642 C.3     1  UNL111111111    2.1277
     12 C           2.3450    3.5276   -0.4855 C.3     1  UNL111111111   -1.9019
     13 C           3.5152    2.9864   -1.2984 C.2     1  UNL111111111    2.3863
     14 O           3.5558    3.1567   -2.4898 O.2     1  UNL111111111   -1.2456
     15 C           2.8276   -2.2729    1.0168 C.2     1  UNL111111111    1.3324
     16 O           2.6877   -3.1578    0.2162 O.2     1  UNL111111111   -1.0840
     17 O          -0.4533   -1.8658    1.3741 O.3     1  UNL111111111   -0.5748
     18 O          -1.6868    1.4420    1.3043 O.3     1  UNL111111111   -1.1265
     19 C           5.9543    2.5732   -1.3412 C.3     1  UNL111111111    0.1187
     20 C           2.8035    4.7880    0.2458 C.3     1  UNL111111111   -0.2072
     21 C           6.1055    0.3055    1.2731 C.3     1  UNL111111111   -0.4487
     22 O           3.8619    0.3062   -1.7533 O.3     1  UNL111111111   -1.3239
     23 O           6.4425   -0.1226   -1.0807 O.3     1  UNL111111111   -0.8204
     24 C           5.9667   -2.6484    0.4997 C.3     1  UNL111111111   -0.6159
     25 C           1.3506   -3.0008    2.8541 C.3     1  UNL111111111   -0.3880
     26 C           0.1699    3.4101    2.1928 C.3     1  UNL111111111   -0.1419
     27 O          -0.2996    3.3921   -0.1227 O.3     1  UNL111111111   -1.0345
     28 C          -2.5948    0.9666    0.3387 C.3     1  UNL111111111    0.3428
     29 C          -3.9699    1.0239    1.0287 C.3     1  UNL111111111   -0.1867
     30 C          -5.1288    1.4095    0.0766 C.3     1  UNL111111111    0.7638
     31 C          -4.6959    2.5718   -0.8257 C.3     1  UNL111111111   -0.9993
     32 C          -3.4859    2.0943   -1.6338 C.3     1  UNL111111111    0.4765
     33 O          -2.4037    1.8454   -0.7566 O.3     1  UNL111111111   -0.6732
     34 N          -6.3275    1.6282    0.9149 N.3     1  UNL111111111   -0.5432
     35 C          -2.9451    3.1659   -2.5747 C.3     1  UNL111111111   -0.5126
     36 O          -4.1766   -0.3226    1.4348 O.3     1  UNL111111111   -0.2500
     37 C          -6.3406    2.9367    1.6000 C.3     1  UNL111111111   -0.3064
     38 C          -0.8359   -2.4681    0.1584 C.3     1  UNL111111111   -0.0810
     39 C          -2.2057   -3.0613    0.4733 C.3     1  UNL111111111   -1.0800
     40 C          -2.9429   -3.4808   -0.8065 C.3     1  UNL111111111    1.1580
     41 C          -2.9109   -2.3517   -1.8671 C.3     1  UNL111111111   -0.3795
     42 C          -1.5329   -1.6683   -2.0094 C.3     1  UNL111111111   -0.0247
     43 O          -0.9313   -1.3997   -0.7690 O.3     1  UNL111111111    0.3061
     44 O          -4.2627   -3.6568   -0.3108 O.3     1  UNL111111111   -0.8040
     45 O          -3.8527   -1.3516   -1.5536 O.3     1  UNL111111111   -0.4780
     46 C          -5.2693   -3.9347   -1.2629 C.3     1  UNL111111111    0.4190
     47 C          -7.5693    1.4460    0.1332 C.3     1  UNL111111111   -0.0064
     48 C          -0.5750   -2.4387   -2.9102 C.3     1  UNL111111111   -0.1025
     49 C           5.7562   -3.9829   -0.2110 C.3     1  UNL111111111   -0.1841
     50 C          -0.6135    0.0510    3.1847 C.3     1  UNL111111111    0.4689
     51 C          -2.4132   -4.8056   -1.3568 C.3     1  UNL111111111   -0.2472
     52 H           4.7512    2.6649    0.4591 H       1  UNL111111111    0.3250
     53 H           3.4591    0.5894    0.1573 H       1  UNL111111111   -0.7329
     54 H           4.4396   -1.8927   -0.9056 H       1  UNL111111111   -0.0221
     55 H           2.3551   -1.0843    2.7645 H       1  UNL111111111    0.1116
     56 H           1.0081   -0.8647    0.2578 H       1  UNL111111111   -0.2869
     57 H           1.2567    0.7626    2.3796 H       1  UNL111111111    0.1718
     58 H          -0.2670    0.7669   -0.0715 H       1  UNL111111111   -0.7817
     59 H           2.4426    2.3984    1.3697 H       1  UNL111111111   -0.4588
     60 H           1.8957    1.4718   -0.0573 H       1  UNL111111111   -0.2204
     61 H           1.5265    3.8082   -1.2095 H       1  UNL111111111    0.5655
     62 H           6.1102    3.6511   -1.4614 H       1  UNL111111111    0.0458
     63 H           6.8354    2.1580   -0.8381 H       1  UNL111111111    0.0785
     64 H           5.9333    2.1405   -2.3523 H       1  UNL111111111    0.0311
     65 H           3.2092    5.5297   -0.4527 H       1  UNL111111111    0.1198
     66 H           1.9510    5.2610    0.7539 H       1  UNL111111111    0.1003
     67 H           3.5658    4.5822    1.0023 H       1  UNL111111111    0.1578
     68 H           6.9107   -0.3569    1.6072 H       1  UNL111111111    0.1095
     69 H           6.5375    1.3096    1.1819 H       1  UNL111111111    0.1601
     70 H           5.3541    0.3263    2.0736 H       1  UNL111111111    0.1323
     71 H           4.4966    0.5246   -2.4747 H       1  UNL111111111    0.4089
     72 H           7.1701   -0.7562   -0.9263 H       1  UNL111111111    0.3914
     73 H           5.8936   -2.7896    1.5986 H       1  UNL111111111    0.1346
     74 H           6.9968   -2.2888    0.3187 H       1  UNL111111111    0.1543
     75 H           2.1422   -3.4428    3.4673 H       1  UNL111111111    0.0583
     76 H           0.5215   -2.7186    3.5192 H       1  UNL111111111    0.1510
     77 H           0.9622   -3.7866    2.1899 H       1  UNL111111111    0.1493
     78 H           0.5136    4.4442    2.0749 H       1  UNL111111111    0.1861
     79 H          -0.8917    3.4575    2.4725 H       1  UNL111111111    0.0195
     80 H           0.7157    2.9522    3.0196 H       1  UNL111111111    0.0141
     81 H          -1.1625    2.9849   -0.3759 H       1  UNL111111111    0.7978
     82 H          -2.3276   -0.0587   -0.0109 H       1  UNL111111111   -0.5010
     83 H          -3.9320    1.6590    1.9412 H       1  UNL111111111    0.1084
     84 H          -5.3417    0.5106   -0.5751 H       1  UNL111111111    0.0861
     85 H          -4.4240    3.4631   -0.2296 H       1  UNL111111111    0.2174
     86 H          -5.5167    2.8843   -1.4914 H       1  UNL111111111    0.2396
     87 H          -3.7000    1.1385   -2.1708 H       1  UNL111111111    0.1546
     88 H          -2.0165    2.8260   -3.0570 H       1  UNL111111111    0.2233
     89 H          -3.6664    3.4113   -3.3587 H       1  UNL111111111    0.0909
     90 H          -2.6947    4.0882   -2.0339 H       1  UNL111111111    0.1312
     91 H          -5.0865   -0.4103    1.8027 H       1  UNL111111111    0.1783
     92 H          -7.1337    2.9186    2.3672 H       1  UNL111111111    0.1617
     93 H          -5.3852    3.1006    2.1252 H       1  UNL111111111    0.2165
     94 H          -6.5210    3.7963    0.9375 H       1  UNL111111111    0.0784
     95 H          -0.0600   -3.1783   -0.1911 H       1  UNL111111111    0.1824
     96 H          -2.1153   -3.9116    1.1729 H       1  UNL111111111    0.2423
     97 H          -2.8165   -2.3078    1.0313 H       1  UNL111111111    0.4263
     98 H          -3.2622   -2.7168   -2.8582 H       1  UNL111111111    0.1294
     99 H          -1.6814   -0.6196   -2.3868 H       1  UNL111111111    0.1353
    100 H          -3.9348   -1.2290   -0.5732 H       1  UNL111111111    0.4034
    101 H          -6.1437   -4.1345   -0.6297 H       1  UNL111111111    0.0287
    102 H          -5.4551   -3.0603   -1.8976 H       1  UNL111111111   -0.1609
    103 H          -5.0300   -4.8148   -1.8630 H       1  UNL111111111    0.0131
    104 H          -8.4371    1.5499    0.8055 H       1  UNL111111111    0.1034
    105 H          -7.6905    2.1543   -0.6994 H       1  UNL111111111   -0.0584
    106 H          -7.5953    0.4206   -0.2730 H       1  UNL111111111    0.1358
    107 H           0.4350   -2.0021   -2.8484 H       1  UNL111111111    0.0844
    108 H          -0.4783   -3.4910   -2.6304 H       1  UNL111111111    0.1039
    109 H          -0.8856   -2.3956   -3.9586 H       1  UNL111111111    0.0875
    110 H           6.4289   -4.7553    0.1754 H       1  UNL111111111    0.0538
    111 H           4.7256   -4.3467   -0.0772 H       1  UNL111111111    0.1406
    112 H           5.9276   -3.9004   -1.2905 H       1  UNL111111111    0.1345
    113 H          -0.1579   -0.5970    3.9374 H       1  UNL111111111   -0.0973
    114 H          -0.8968    0.9963    3.6609 H       1  UNL111111111   -0.0605
    115 H          -1.5526   -0.4285    2.8594 H       1  UNL111111111   -0.1007
    116 H          -2.7534   -5.6390   -0.7259 H       1  UNL111111111    0.0700
    117 H          -2.7623   -5.0071   -2.3735 H       1  UNL111111111    0.1301
    118 H          -1.3179   -4.8367   -1.3660 H       1  UNL111111111   -0.0147
@<TRIPOS>BOND
     1     1     2    1
     2     1    13    1
     3     1    19    1
     4     1    52    1
     5     2     3    1
     6     2    22    1
     7     2    53    1
     8     3     4    1
     9     3    21    1
    10     3    23    1
    11     4     5    1
    12     4    24    1
    13     4    54    1
    14     5    15    1
    15     6     7    1
    16     6    15    1
    17     6    25    1
    18     6    55    1
    19     7     8    1
    20     7    17    1
    21     7    56    1
    22     8     9    1
    23     8    50    1
    24     8    57    1
    25     9    10    1
    26     9    18    1
    27     9    58    1
    28    10    11    1
    29    10    26    1
    30    10    27    1
    31    11    12    1
    32    11    59    1
    33    11    60    1
    34    12    13    1
    35    12    20    1
    36    12    61    1
    37    13    14    2
    38    15    16    2
    39    17    38    1
    40    18    28    1
    41    19    62    1
    42    19    63    1
    43    19    64    1
    44    20    65    1
    45    20    66    1
    46    20    67    1
    47    21    68    1
    48    21    69    1
    49    21    70    1
    50    22    71    1
    51    23    72    1
    52    24    49    1
    53    24    73    1
    54    24    74    1
    55    25    75    1
    56    25    76    1
    57    25    77    1
    58    26    78    1
    59    26    79    1
    60    26    80    1
    61    27    81    1
    62    28    29    1
    63    28    33    1
    64    28    82    1
    65    29    30    1
    66    29    36    1
    67    29    83    1
    68    30    31    1
    69    30    34    1
    70    30    84    1
    71    31    32    1
    72    31    85    1
    73    31    86    1
    74    32    33    1
    75    32    35    1
    76    32    87    1
    77    34    37    1
    78    34    47    1
    79    35    88    1
    80    35    89    1
    81    35    90    1
    82    36    91    1
    83    37    92    1
    84    37    93    1
    85    37    94    1
    86    38    39    1
    87    38    43    1
    88    38    95    1
    89    39    40    1
    90    39    96    1
    91    39    97    1
    92    40    41    1
    93    40    44    1
    94    40    51    1
    95    41    42    1
    96    41    45    1
    97    41    98    1
    98    42    43    1
    99    42    48    1
   100    42    99    1
   101    44    46    1
   102    45   100    1
   103    46   101    1
   104    46   102    1
   105    46   103    1
   106    47   104    1
   107    47   105    1
   108    47   106    1
   109    48   107    1
   110    48   108    1
   111    48   109    1
   112    49   110    1
   113    49   111    1
   114    49   112    1
   115    50   113    1
   116    50   114    1
   117    50   115    1
   118    51   116    1
   119    51   117    1
   120    51   118    1
