@<TRIPOS>MOLECULE
oxolane
 13 13 0 0 0
SMALL
USER_CHARGES

@<TRIPOS>ATOM
      1 O           0.4383   -1.1530   -0.1114 O.3     1  UNL111     -0.0308
      2 C          -1.0506   -0.7789   -0.0656 C.3     1  UNL111     -0.3014
      3 C          -1.0601    0.7446    0.1507 C.3     1  UNL111     -0.3006
      4 C           0.3716    1.1742   -0.1925 C.3     1  UNL111     -0.0289
      5 C           1.2127    0.0390   -0.0338 C.3     1  UNL111     -0.4082
      6 H           0.7644   -1.7537    0.7534 H       1  UNL111      0.1288
      7 H           0.7278   -1.6548   -1.0484 H       1  UNL111      0.1218
      8 H          -1.5618   -1.0521   -1.0031 H       1  UNL111      0.1408
      9 H          -1.5811   -1.3061    0.7421 H       1  UNL111      0.1423
     10 H          -1.8077    1.2476   -0.4799 H       1  UNL111      0.1413
     11 H          -1.3117    0.9932    1.1953 H       1  UNL111      0.1440
     12 H           0.4743    1.5155   -1.2359 H       1  UNL111      0.1195
     13 H           0.7904    1.9268    0.4933 H       1  UNL111      0.1313
@<TRIPOS>BOND
     1     1     2    1
     2     2     3    1
     3     3     4    1
     4     4     5    1
     5     1     5    1
     6     2     6    1
     7     2     7    1
     8     3     8    1
     9     3     9    1
    10     4    10    1
    11     4    11    1
    12     5    12    1
    13     5    13    1
