@<TRIPOS>MOLECULE
C6H12O6
   24    23     1     0     0
SMALL
NO_CHARGES


@<TRIPOS>ATOM
      1 O1         -3.9756   -0.2665   -0.4009 O.2       1 <1>         0.0000
      2 C1         -3.1216   -0.7393    0.3101 C.2       1 <1>         0.0000
      3 C2         -1.9281    0.0904    0.7080 C.3       1 <1>         0.0000
      4 H1         -1.8950    0.1821    1.7936 H         1 <1>         0.0000
      5 O2         -2.0350    1.3899    0.1232 O.3       1 <1>         0.0000
      6 C3         -0.6484   -0.5874    0.2141 C.3       1 <1>         0.0000
      7 H2         -0.5208   -1.5406    0.7271 H         1 <1>         0.0000
      8 O3         -0.7416   -0.8129   -1.1939 O.3       1 <1>         0.0000
      9 C4          0.5523    0.3144    0.5078 C.3       1 <1>         0.0000
     10 H3          0.6765    0.4143    1.5860 H         1 <1>         0.0000
     11 O4          0.3317    1.6037   -0.0678 O.3       1 <1>         0.0000
     12 C5          1.8146   -0.3044   -0.0959 C.3       1 <1>         0.0000
     13 H4          1.6904   -0.4043   -1.1742 H         1 <1>         0.0000
     14 O5          2.0352   -1.5936    0.4796 O.3       1 <1>         0.0000
     15 C6          3.0152    0.5974    0.1977 C.3       1 <1>         0.0000
     16 O6          4.1719    0.0809   -0.4637 O.3       1 <1>         0.0000
     17 H5         -3.2153   -1.7552    0.6644 H         1 <1>         0.0000
     18 H6         -2.0695    1.3847   -0.8432 H         1 <1>         0.0000
     19 H7         -0.8565   -0.0062   -1.7147 H         1 <1>         0.0000
     20 H8          0.2124    1.5908   -1.0273 H         1 <1>         0.0000
     21 H9          2.1545   -1.5808    1.4392 H         1 <1>         0.0000
     22 H10         2.8097    1.6050   -0.1635 H         1 <1>         0.0000
     23 H11         3.1938    0.6261    1.2726 H         1 <1>         0.0000
     24 H12         4.9727    0.6039   -0.3214 H         1 <1>         0.0000
@<TRIPOS>BOND
     1    1    2 2
     2    2    3 1
     3    3    4 1
     4    3    5 1
     5    3    6 1
     6    6    7 1
     7    6    8 1
     8    6    9 1
     9    9   10 1
    10    9   11 1
    11    9   12 1
    12   12   13 1
    13   12   14 1
    14   12   15 1
    15   15   16 1
    16    2   17 1
    17    5   18 1
    18    8   19 1
    19   11   20 1
    20   14   21 1
    21   15   22 1
    22   15   23 1
    23   16   24 1
