@<TRIPOS>MOLECULE
methyl salicylate
 19 19 0 0 0
SMALL
USER_CHARGES

@<TRIPOS>ATOM
      1 C           0.0100    0.0101   -0.0107 C.ar    1  UNL111111111   -0.0036
      2 C           1.3939    0.0101   -0.0107 C.ar    1  UNL111111111   -0.2547
      3 C          -0.7137    1.2171   -0.0107 C.ar    1  UNL111111111   -0.3271
      4 C           0.0081    2.4182   -0.0059 C.ar    1  UNL111111111    0.3746
      5 C           2.0955    1.2256   -0.0049 C.ar    1  UNL111111111   -0.0251
      6 C           1.4162    2.4298    0.0002 C.ar    1  UNL111111111   -0.2810
      7 H           1.9417   -0.9288   -0.0131 H       1  UNL111111111    0.1627
      8 H           3.1867    1.2154   -0.0031 H       1  UNL111111111    0.1506
      9 H           1.9371    3.3848    0.0069 H       1  UNL111111111    0.1816
     10 H          -0.5433   -0.9359   -0.0073 H       1  UNL111111111    0.1713
     11 O          -0.5536    3.6396    0.0110 O.3     1  UNL111111111   -0.4629
     12 H          -1.5506    3.5935   -0.0485 H       1  UNL111111111    0.3596
     13 C          -2.1702    1.1024    0.0109 C.2     1  UNL111111111    0.6355
     14 O          -2.7834    2.2865   -0.3010 O.3     1  UNL111111111   -0.4807
     15 C          -4.2047    2.3027   -0.2349 C.3     1  UNL111111111   -0.1430
     16 H          -4.6183    1.5695   -0.9370 H       1  UNL111111111    0.1452
     17 H          -4.4550    3.3278   -0.5312 H       1  UNL111111111    0.1438
     18 H          -4.5342    2.0825    0.7863 H       1  UNL111111111    0.1408
     19 O          -2.8232    0.1201    0.2533 O.2     1  UNL111111111   -0.4878
@<TRIPOS>BOND
     1    11    12    1
     2    11     4    1
     3     9     6    1
     4    17    15    1
     5     6     4   ar
     6     6     5   ar
     7     4     3   ar
     8    15    14    1
     9    15    18    1
    10    15    16    1
    11    14    13    1
    12     5     8    1
    13     5     2   ar
    14     3    13    1
    15     3     1   ar
    16    13    19    2
    17     1     2   ar
    18     1    10    1
    19     2     7    1
