@<TRIPOS>MOLECULE
water
 3 2 0 0 0
SMALL
USER_CHARGES

@<TRIPOS>ATOM
      1 O           0.0231   -0.0852   -0.0100 O.3     1  HOH1111    -0.6493
      2 H          -0.7379    0.4924   -0.0100 H       0  HOH0        0.3247
      3 H           0.7817    0.4956   -0.0100 H       0  HOH0        0.3247
@<TRIPOS>BOND
     1     1     2    1
     2     1     3    1
