@<TRIPOS>MOLECULE
isoamyl acetate
 23 22 0 0 0
SMALL
USER_CHARGES

@<TRIPOS>ATOM
      1 C           0.0100    0.0100    0.0100 C.3     1  UNL111111111   -0.5127
      2 C           1.5008    0.0100    0.0100 C.2     1  UNL111111111    0.6275
      3 H          -0.3913    1.0354    0.0100 H       1  UNL111111111    0.1844
      4 H          -0.3917   -0.4905    0.9047 H       1  UNL111111111    0.1847
      5 H          -0.3819   -0.5105   -0.8777 H       1  UNL111111111    0.1845
      6 O           1.9583    0.6484    1.1149 O.3     1  UNL111111111   -0.4423
      7 C           3.3851    0.7301    1.2562 C.3     1  UNL111111111   -0.0090
      8 C           3.5781    1.4780    2.5730 C.3     1  UNL111111111   -0.3180
      9 H           3.7929    1.2731    0.3862 H       1  UNL111111111    0.1347
     10 H           3.7936   -0.2948    1.2751 H       1  UNL111111111    0.1363
     11 C           5.0622    1.8087    2.8085 C.3     1  UNL111111111   -0.0532
     12 H           3.1742    0.8818    3.4128 H       1  UNL111111111    0.1533
     13 H           2.9761    2.4086    2.5602 H       1  UNL111111111    0.1543
     14 C           5.1887    2.7424    4.0193 C.3     1  UNL111111111   -0.4550
     15 O           2.2394   -0.4657   -0.8133 O.2     1  UNL111111111   -0.5147
     16 H           4.6318    3.6732    3.8682 H       1  UNL111111111    0.1428
     17 H           6.2342    3.0123    4.2041 H       1  UNL111111111    0.1444
     18 H           4.8055    2.2716    4.9310 H       1  UNL111111111    0.1459
     19 C           5.8800    0.5338    3.0452 C.3     1  UNL111111111   -0.4556
     20 H           5.4649    2.3349    1.9089 H       1  UNL111111111    0.1318
     21 H           5.4671   -0.0623    3.8662 H       1  UNL111111111    0.1466
     22 H           6.9178    0.7712    3.3044 H       1  UNL111111111    0.1448
     23 H           5.9053   -0.1017    2.1536 H       1  UNL111111111    0.1445
@<TRIPOS>BOND
     1    16    14    1
     2    17    14    1
     3    14    18    1
     4    14    11    1
     5    13     8    1
     6    20    11    1
     7    11     8    1
     8    11    19    1
     9     8    12    1
    10     8     7    1
    11     9     7    1
    12     3     1    1
    13    22    19    1
    14     7     6    1
    15     7    10    1
    16     6     2    1
    17    19    21    1
    18    19    23    1
    19     1     2    1
    20     1     4    1
    21     1     5    1
    22     2    15    2
