@<TRIPOS>MOLECULE
benzene
 12 12 0 0 0
SMALL
USER_CHARGES

@<TRIPOS>ATOM
      1 C           0.1669   -1.3843    0.0003 C.ar    1  UNL1111    -0.1480
      2 C          -1.1150   -0.8364    0.0000 C.ar    1  UNL1111    -0.1481
      3 C          -1.2818    0.5476    0.0012 C.ar    1  UNL1111    -0.1481
      4 C          -0.1669    1.3843    0.0027 C.ar    1  UNL1111    -0.1481
      5 C           1.1150    0.8364    0.0010 C.ar    1  UNL1111    -0.1481
      6 C           1.2819   -0.5476   -0.0001 C.ar    1  UNL1111    -0.1481
      7 H           0.2971   -2.4643    0.0010 H       1  UNL1111     0.1481
      8 H          -1.9854   -1.4891   -0.0013 H       1  UNL1111     0.1481
      9 H          -2.2826    0.9747    0.0003 H       1  UNL1111     0.1481
     10 H          -0.2971    2.4644    0.0046 H       1  UNL1111     0.1481
     11 H           1.9853    1.4890    0.0002 H       1  UNL1111     0.1480
     12 H           2.2822   -0.9747   -0.0014 H       1  UNL1111     0.1480
@<TRIPOS>BOND
     1     1     2   ar
     2     2     3   ar
     3     3     4   ar
     4     4     5   ar
     5     5     6   ar
     6     1     6   ar
     7     1     7    1
     8     2     8    1
     9     3     9    1
    10     4    10    1
    11     5    11    1
    12     6    12    1
