@<TRIPOS>MOLECULE
acetonitrile
 6 5 0 0 0
SMALL
USER_CHARGES

@<TRIPOS>ATOM
      1 C          -0.1669    0.0006    0.0012 C.1     1  UNL1111     0.1331
      2 C           1.2702    0.0018   -0.0004 C.3     1  UNL1111    -0.4255
      3 N          -1.3238   -0.0004    0.0022 N.1     1  UNL1111    -0.2633
      4 H           1.6855    0.0052    1.0259 H       1  UNL1111     0.1852
      5 H           1.6827   -0.8894   -0.5115 H       1  UNL1111     0.1852
      6 H           1.6823    0.8901   -0.5171 H       1  UNL1111     0.1852
@<TRIPOS>BOND
     1     1     2    1
     2     1     3    3
     3     2     4    1
     4     2     5    1
     5     2     6    1
