@<TRIPOS>MOLECULE
phosphole
 10 10 0 0 0
SMALL
USER_CHARGES

@<TRIPOS>ATOM
      1 P          -1.1402   -0.0064    0.0058 P.3     1  UNL1111    -0.4426
      2 C           0.1297   -1.3165   -0.0874 C.3     1  UNL1111    -0.1936
      3 C           1.3555   -0.7356    0.0581 C.3     1  UNL1111    -0.0733
      4 C           1.3515    0.7352    0.0632 C.3     1  UNL1111    -0.0733
      5 C           0.1228    1.3110   -0.0778 C.3     1  UNL1111    -0.1936
      6 H          -1.9472   -0.0040   -1.2243 H       1  UNL1111     0.2428
      7 H          -0.0845   -2.3859   -0.1210 H       1  UNL1111     0.2010
      8 H           2.2880   -1.2811    0.1528 H       1  UNL1111     0.1658
      9 H           2.2812    1.2850    0.1612 H       1  UNL1111     0.1658
     10 H          -0.0972    2.3795   -0.1028 H       1  UNL1111     0.2010
@<TRIPOS>BOND
     1     1     2    1
     2     2     3    1
     3     3     4    1
     4     4     5    1
     5     1     5    1
     6     1     6    1
     7     2     7    1
     8     3     8    1
     9     4     9    1
    10     5    10    1
